version 3
run General-0-20220920-00:19:41-19237
attr configname General
attr datetime 20220920-00:19:41
attr datetimef 20220920-001941
attr experiment General
attr inifile omnetpp.ini
attr iterationvars ""
attr iterationvarsd ""
attr iterationvarsf ""
attr measurement ""
attr network System
attr processid 19237
attr repetition 0
attr replication #0
attr resultdir results
attr runnumber 0
attr seedset 0
config network System
config sim-time-limit 10s

par System.source typename "\"lfs.Source\""
par System.source sendInterval exponential(2.7e-07s)
attr unit s
par System.sink typename "\"lfs.Sink\""
statistic System.sink writeThroughput:stats
field count 0
field mean -nan
field stddev -nan
field min -nan
field max -nan
field sum 0
field sqrsum 0
attr recordingmode stats
attr source wThroughput
attr title "Write throughput distribution"
statistic System.sink writeThroughput:histogram
field count 0
field mean -nan
field stddev -nan
field min -nan
field max -nan
field sum 0
field sqrsum 0
attr recordingmode histogram
attr source wThroughput
attr title "Write throughput distribution"
bin	-inf	0
bin	0	0
bin	1	0
statistic System.sink readThroughput:stats
field count 38674
field mean 225.56124605622
field stddev 3.1457663225563
field min 87.194886536935
field max 278.60522306382
field sum 8723355.6299782
field sqrsum 1968033667.7323
attr recordingmode stats
attr source rThroughput
attr title "Read throughput distribution"
statistic System.sink readThroughput:histogram
field count 38674
field mean 225.56124605622
field stddev 3.1457663225563
field min 87.194886536935
field max 278.60522306382
field sum 8723355.6299782
field sqrsum 1968033667.7323
attr recordingmode histogram
attr source rThroughput
attr title "Read throughput distribution"
bin	-inf	0
bin	35	0
bin	40	0
bin	45	0
bin	50	0
bin	55	0
bin	60	0
bin	65	0
bin	70	0
bin	75	0
bin	80	0
bin	85	1
bin	90	0
bin	95	2
bin	100	0
bin	105	1
bin	110	1
bin	115	0
bin	120	1
bin	125	1
bin	130	0
bin	135	0
bin	140	1
bin	145	0
bin	150	1
bin	155	0
bin	160	1
bin	165	0
bin	170	1
bin	175	0
bin	180	0
bin	185	1
bin	190	2
bin	195	1
bin	200	3
bin	205	2
bin	210	5
bin	215	6
bin	220	10038
bin	225	28172
bin	230	206
bin	235	39
bin	240	39
bin	245	7
bin	250	22
bin	255	37
bin	260	38
bin	265	27
bin	270	8
bin	275	10
bin	280	0
bin	285	0
bin	290	0
bin	295	0
bin	300	0
bin	305	0
bin	310	0
bin	315	0
bin	320	0
bin	325	0
bin	330	0
par System.mds.mdsEntry typename "\"lfs.Router\""
par System.mds.mdsQueue[0] typename "\"lfs.Queue\""
statistic System.mds.mdsQueue[0] queueWaiting:stats
field count 38688
field mean 0
field stddev 0
field min 0
field max 0
field sum 0
field sqrsum 0
attr recordingmode stats
attr title "Waiting time within queue"
statistic System.mds.mdsQueue[0] queueLength:stats
field count 116064
field mean 0
field stddev 0
field min 0
field max 0
field sum 0
field sqrsum 0
attr recordingmode stats
attr title "Length of the queue"
par System.mds.mdsCore[0] typename "\"lfs.Server\""
par System.mds.mdsCore[0] mds_rate_r exponential(3e-09s)
attr unit s
par System.mds.mdsCore[0] mds_rate_w exponential(6e-09s)
attr unit s
par System.mds.mdsCore[0] oss_rate exponential(0.00012s)
attr unit s
par System.mds.mdsCore[0] one_channel_rate exponential(0.00055s)
attr unit s
par System.mds.mdsCore[0] ost_rate_l1k_w exponential(2.55e-05s)
attr unit s
par System.mds.mdsCore[0] ost_rate_l4k_w exponential(2.72e-05s)
attr unit s
par System.mds.mdsCore[0] slope_l4k_w 3.2e-06s
attr unit s
par System.mds.mdsCore[0] ost_rate_l8k_w exponential(3.64e-05s)
attr unit s
par System.mds.mdsCore[0] slope_l8k_w 1.15e-06s
attr unit s
par System.mds.mdsCore[0] ost_rate_l16k_w exponential(4.1e-05s)
attr unit s
par System.mds.mdsCore[0] slope_l16k_w 1.55e-06s
attr unit s
par System.mds.mdsCore[0] ost_rate_l32k_w exponential(5.34e-05s)
attr unit s
par System.mds.mdsCore[0] slope_l32k_w 1.88e-06s
attr unit s
par System.mds.mdsCore[0] ost_rate_l256k_w exponential(8.35e-05s)
attr unit s
par System.mds.mdsCore[0] slope_l256k_w 1.58e-06s
attr unit s
par System.mds.mdsCore[0] ost_rate_g256k_w exponential(0.000437s)
attr unit s
par System.mds.mdsCore[0] ost_rate_l64_r exponential(2e-06s)
attr unit s
par System.mds.mdsCore[0] ost_rate_l1k_r exponential(3.05e-06s)
attr unit s
par System.mds.mdsCore[0] ost_rate_l4k_r exponential(3.1e-06s)
attr unit s
par System.mds.mdsCore[0] slope_l4k_r 3.2e-06s
attr unit s
par System.mds.mdsCore[0] ost_rate_l8k_r exponential(1.2e-05s)
attr unit s
par System.mds.mdsCore[0] slope_l8k_r 8.75e-07s
attr unit s
par System.mds.mdsCore[0] ost_rate_l16k_r exponential(1.55e-05s)
attr unit s
par System.mds.mdsCore[0] slope_l16k_r 1.44e-06s
attr unit s
par System.mds.mdsCore[0] ost_rate_l32k_r exponential(2.7e-05s)
attr unit s
par System.mds.mdsCore[0] slope_l32k_r 1.19e-06s
attr unit s
par System.mds.mdsCore[0] ost_rate_l256k_r exponential(4.6e-05s)
attr unit s
par System.mds.mdsCore[0] slope_l256k_r 1.12e-06s
attr unit s
par System.mds.mdsCore[0] ost_rate_g256k_r exponential(0.000297s)
attr unit s
statistic System.mds.mdsCore[0] waitInStation:histogram
field count 0
field mean -nan
field stddev -nan
field min -nan
field max -nan
field sum 0
field sqrsum 0
attr recordingmode histogram
attr title "Average waiting time in station"
bin	-inf	0
bin	0	0
bin	1	0
statistic System.mds.mdsCore[0] averageIOPS:histogram
field count 1
field mean 3693646.0771996
field stddev -nan
field min 3693646.0771996
field max 3693646.0771996
field sum 3693646.0771996
field sqrsum 13643021343612
attr recordingmode histogram
attr title "Average IO throughput"
bin	-inf	0
bin	3693645.56	0
bin	3693645.58	0
bin	3693645.6	0
bin	3693645.62	0
bin	3693645.64	0
bin	3693645.66	0
bin	3693645.68	0
bin	3693645.7	0
bin	3693645.72	0
bin	3693645.74	0
bin	3693645.76	0
bin	3693645.78	0
bin	3693645.8	0
bin	3693645.82	0
bin	3693645.84	0
bin	3693645.86	0
bin	3693645.88	0
bin	3693645.9	0
bin	3693645.92	0
bin	3693645.94	0
bin	3693645.96	0
bin	3693645.98	0
bin	3693646	0
bin	3693646.02	0
bin	3693646.04	0
bin	3693646.06	1
bin	3693646.08	0
bin	3693646.1	0
bin	3693646.12	0
bin	3693646.14	0
bin	3693646.16	0
bin	3693646.18	0
bin	3693646.2	0
bin	3693646.22	0
bin	3693646.24	0
bin	3693646.26	0
bin	3693646.28	0
bin	3693646.3	0
bin	3693646.32	0
bin	3693646.34	0
bin	3693646.36	0
bin	3693646.38	0
bin	3693646.4	0
bin	3693646.42	0
bin	3693646.44	0
bin	3693646.46	0
bin	3693646.48	0
bin	3693646.5	0
bin	3693646.52	0
bin	3693646.54	0
bin	3693646.56	0
bin	3693646.58	0
par System.mds.mdsExit typename "\"lfs.Router\""
par System.mds typename "\"lfs.MDS\""
par System.mds core_count 1
par System.split_mtu typename "\"lfs.Router\""
par System.oss[0].ossEntry typename "\"lfs.Router\""
par System.oss[0].ossQueue[0] typename "\"lfs.Queue\""
statistic System.oss[0].ossQueue[0] queueWaiting:stats
field count 2516
field mean 0
field stddev 0
field min 0
field max 0
field sum 0
field sqrsum 0
attr recordingmode stats
attr title "Waiting time within queue"
statistic System.oss[0].ossQueue[0] queueLength:stats
field count 7548
field mean 0
field stddev 0
field min 0
field max 0
field sum 0
field sqrsum 0
attr recordingmode stats
attr title "Length of the queue"
par System.oss[0].ossQueue[1] typename "\"lfs.Queue\""
statistic System.oss[0].ossQueue[1] queueWaiting:stats
field count 2557
field mean 0
field stddev 0
field min 0
field max 0
field sum 0
field sqrsum 0
attr recordingmode stats
attr title "Waiting time within queue"
statistic System.oss[0].ossQueue[1] queueLength:stats
field count 7671
field mean 0
field stddev 0
field min 0
field max 0
field sum 0
field sqrsum 0
attr recordingmode stats
attr title "Length of the queue"
par System.oss[0].ossQueue[2] typename "\"lfs.Queue\""
statistic System.oss[0].ossQueue[2] queueWaiting:stats
field count 2529
field mean 0
field stddev 0
field min 0
field max 0
field sum 0
field sqrsum 0
attr recordingmode stats
attr title "Waiting time within queue"
statistic System.oss[0].ossQueue[2] queueLength:stats
field count 7587
field mean 0
field stddev 0
field min 0
field max 0
field sum 0
field sqrsum 0
attr recordingmode stats
attr title "Length of the queue"
par System.oss[0].ossQueue[3] typename "\"lfs.Queue\""
statistic System.oss[0].ossQueue[3] queueWaiting:stats
field count 2530
field mean 0
field stddev 0
field min 0
field max 0
field sum 0
field sqrsum 0
attr recordingmode stats
attr title "Waiting time within queue"
statistic System.oss[0].ossQueue[3] queueLength:stats
field count 7590
field mean 0
field stddev 0
field min 0
field max 0
field sum 0
field sqrsum 0
attr recordingmode stats
attr title "Length of the queue"
par System.oss[0].ossCore[0] typename "\"lfs.Server\""
par System.oss[0].ossCore[0] mds_rate_r exponential(3e-09s)
attr unit s
par System.oss[0].ossCore[0] mds_rate_w exponential(6e-09s)
attr unit s
par System.oss[0].ossCore[0] oss_rate exponential(0.00012s)
attr unit s
par System.oss[0].ossCore[0] one_channel_rate exponential(0.00055s)
attr unit s
par System.oss[0].ossCore[0] ost_rate_l1k_w exponential(2.55e-05s)
attr unit s
par System.oss[0].ossCore[0] ost_rate_l4k_w exponential(2.72e-05s)
attr unit s
par System.oss[0].ossCore[0] slope_l4k_w 3.2e-06s
attr unit s
par System.oss[0].ossCore[0] ost_rate_l8k_w exponential(3.64e-05s)
attr unit s
par System.oss[0].ossCore[0] slope_l8k_w 1.15e-06s
attr unit s
par System.oss[0].ossCore[0] ost_rate_l16k_w exponential(4.1e-05s)
attr unit s
par System.oss[0].ossCore[0] slope_l16k_w 1.55e-06s
attr unit s
par System.oss[0].ossCore[0] ost_rate_l32k_w exponential(5.34e-05s)
attr unit s
par System.oss[0].ossCore[0] slope_l32k_w 1.88e-06s
attr unit s
par System.oss[0].ossCore[0] ost_rate_l256k_w exponential(8.35e-05s)
attr unit s
par System.oss[0].ossCore[0] slope_l256k_w 1.58e-06s
attr unit s
par System.oss[0].ossCore[0] ost_rate_g256k_w exponential(0.000437s)
attr unit s
par System.oss[0].ossCore[0] ost_rate_l64_r exponential(2e-06s)
attr unit s
par System.oss[0].ossCore[0] ost_rate_l1k_r exponential(3.05e-06s)
attr unit s
par System.oss[0].ossCore[0] ost_rate_l4k_r exponential(3.1e-06s)
attr unit s
par System.oss[0].ossCore[0] slope_l4k_r 3.2e-06s
attr unit s
par System.oss[0].ossCore[0] ost_rate_l8k_r exponential(1.2e-05s)
attr unit s
par System.oss[0].ossCore[0] slope_l8k_r 8.75e-07s
attr unit s
par System.oss[0].ossCore[0] ost_rate_l16k_r exponential(1.55e-05s)
attr unit s
par System.oss[0].ossCore[0] slope_l16k_r 1.44e-06s
attr unit s
par System.oss[0].ossCore[0] ost_rate_l32k_r exponential(2.7e-05s)
attr unit s
par System.oss[0].ossCore[0] slope_l32k_r 1.19e-06s
attr unit s
par System.oss[0].ossCore[0] ost_rate_l256k_r exponential(4.6e-05s)
attr unit s
par System.oss[0].ossCore[0] slope_l256k_r 1.12e-06s
attr unit s
par System.oss[0].ossCore[0] ost_rate_g256k_r exponential(0.000297s)
attr unit s
statistic System.oss[0].ossCore[0] waitInStation:histogram
field count 0
field mean -nan
field stddev -nan
field min -nan
field max -nan
field sum 0
field sqrsum 0
attr recordingmode histogram
attr title "Average waiting time in station"
bin	-inf	0
bin	0	0
bin	1	0
statistic System.oss[0].ossCore[0] averageIOPS:histogram
field count 1
field mean 240568.51400798
field stddev -nan
field min 240568.51400798
field max 240568.51400798
field sum 240568.51400798
field sqrsum 57873209932.006
attr recordingmode histogram
attr title "Average IO throughput"
bin	-inf	0
bin	240568	0
bin	240568.02	0
bin	240568.04	0
bin	240568.06	0
bin	240568.08	0
bin	240568.1	0
bin	240568.12	0
bin	240568.14	0
bin	240568.16	0
bin	240568.18	0
bin	240568.2	0
bin	240568.22	0
bin	240568.24	0
bin	240568.26	0
bin	240568.28	0
bin	240568.3	0
bin	240568.32	0
bin	240568.34	0
bin	240568.36	0
bin	240568.38	0
bin	240568.4	0
bin	240568.42	0
bin	240568.44	0
bin	240568.46	0
bin	240568.48	0
bin	240568.5	1
bin	240568.52	0
bin	240568.54	0
bin	240568.56	0
bin	240568.58	0
bin	240568.6	0
bin	240568.62	0
bin	240568.64	0
bin	240568.66	0
bin	240568.68	0
bin	240568.7	0
bin	240568.72	0
bin	240568.74	0
bin	240568.76	0
bin	240568.78	0
bin	240568.8	0
bin	240568.82	0
bin	240568.84	0
bin	240568.86	0
bin	240568.88	0
bin	240568.9	0
bin	240568.92	0
bin	240568.94	0
bin	240568.96	0
bin	240568.98	0
bin	240569	0
bin	240569.02	0
par System.oss[0].ossCore[1] typename "\"lfs.Server\""
par System.oss[0].ossCore[1] mds_rate_r exponential(3e-09s)
attr unit s
par System.oss[0].ossCore[1] mds_rate_w exponential(6e-09s)
attr unit s
par System.oss[0].ossCore[1] oss_rate exponential(0.00012s)
attr unit s
par System.oss[0].ossCore[1] one_channel_rate exponential(0.00055s)
attr unit s
par System.oss[0].ossCore[1] ost_rate_l1k_w exponential(2.55e-05s)
attr unit s
par System.oss[0].ossCore[1] ost_rate_l4k_w exponential(2.72e-05s)
attr unit s
par System.oss[0].ossCore[1] slope_l4k_w 3.2e-06s
attr unit s
par System.oss[0].ossCore[1] ost_rate_l8k_w exponential(3.64e-05s)
attr unit s
par System.oss[0].ossCore[1] slope_l8k_w 1.15e-06s
attr unit s
par System.oss[0].ossCore[1] ost_rate_l16k_w exponential(4.1e-05s)
attr unit s
par System.oss[0].ossCore[1] slope_l16k_w 1.55e-06s
attr unit s
par System.oss[0].ossCore[1] ost_rate_l32k_w exponential(5.34e-05s)
attr unit s
par System.oss[0].ossCore[1] slope_l32k_w 1.88e-06s
attr unit s
par System.oss[0].ossCore[1] ost_rate_l256k_w exponential(8.35e-05s)
attr unit s
par System.oss[0].ossCore[1] slope_l256k_w 1.58e-06s
attr unit s
par System.oss[0].ossCore[1] ost_rate_g256k_w exponential(0.000437s)
attr unit s
par System.oss[0].ossCore[1] ost_rate_l64_r exponential(2e-06s)
attr unit s
par System.oss[0].ossCore[1] ost_rate_l1k_r exponential(3.05e-06s)
attr unit s
par System.oss[0].ossCore[1] ost_rate_l4k_r exponential(3.1e-06s)
attr unit s
par System.oss[0].ossCore[1] slope_l4k_r 3.2e-06s
attr unit s
par System.oss[0].ossCore[1] ost_rate_l8k_r exponential(1.2e-05s)
attr unit s
par System.oss[0].ossCore[1] slope_l8k_r 8.75e-07s
attr unit s
par System.oss[0].ossCore[1] ost_rate_l16k_r exponential(1.55e-05s)
attr unit s
par System.oss[0].ossCore[1] slope_l16k_r 1.44e-06s
attr unit s
par System.oss[0].ossCore[1] ost_rate_l32k_r exponential(2.7e-05s)
attr unit s
par System.oss[0].ossCore[1] slope_l32k_r 1.19e-06s
attr unit s
par System.oss[0].ossCore[1] ost_rate_l256k_r exponential(4.6e-05s)
attr unit s
par System.oss[0].ossCore[1] slope_l256k_r 1.12e-06s
attr unit s
par System.oss[0].ossCore[1] ost_rate_g256k_r exponential(0.000297s)
attr unit s
statistic System.oss[0].ossCore[1] waitInStation:histogram
field count 0
field mean -nan
field stddev -nan
field min -nan
field max -nan
field sum 0
field sqrsum 0
attr recordingmode histogram
attr title "Average waiting time in station"
bin	-inf	0
bin	0	0
bin	1	0
statistic System.oss[0].ossCore[1] averageIOPS:histogram
field count 1
field mean 243589.4649018
field stddev -nan
field min 243589.4649018
field max 243589.4649018
field sum 243589.4649018
field sqrsum 59335827411.144
attr recordingmode histogram
attr title "Average IO throughput"
bin	-inf	0
bin	243588.96	0
bin	243588.98	0
bin	243589	0
bin	243589.02	0
bin	243589.04	0
bin	243589.06	0
bin	243589.08	0
bin	243589.1	0
bin	243589.12	0
bin	243589.14	0
bin	243589.16	0
bin	243589.18	0
bin	243589.2	0
bin	243589.22	0
bin	243589.24	0
bin	243589.26	0
bin	243589.28	0
bin	243589.3	0
bin	243589.32	0
bin	243589.34	0
bin	243589.36	0
bin	243589.38	0
bin	243589.4	0
bin	243589.42	0
bin	243589.44	0
bin	243589.46	1
bin	243589.48	0
bin	243589.5	0
bin	243589.52	0
bin	243589.54	0
bin	243589.56	0
bin	243589.58	0
bin	243589.6	0
bin	243589.62	0
bin	243589.64	0
bin	243589.66	0
bin	243589.68	0
bin	243589.7	0
bin	243589.72	0
bin	243589.74	0
bin	243589.76	0
bin	243589.78	0
bin	243589.8	0
bin	243589.82	0
bin	243589.84	0
bin	243589.86	0
bin	243589.88	0
bin	243589.9	0
bin	243589.92	0
bin	243589.94	0
bin	243589.96	0
bin	243589.98	0
par System.oss[0].ossCore[2] typename "\"lfs.Server\""
par System.oss[0].ossCore[2] mds_rate_r exponential(3e-09s)
attr unit s
par System.oss[0].ossCore[2] mds_rate_w exponential(6e-09s)
attr unit s
par System.oss[0].ossCore[2] oss_rate exponential(0.00012s)
attr unit s
par System.oss[0].ossCore[2] one_channel_rate exponential(0.00055s)
attr unit s
par System.oss[0].ossCore[2] ost_rate_l1k_w exponential(2.55e-05s)
attr unit s
par System.oss[0].ossCore[2] ost_rate_l4k_w exponential(2.72e-05s)
attr unit s
par System.oss[0].ossCore[2] slope_l4k_w 3.2e-06s
attr unit s
par System.oss[0].ossCore[2] ost_rate_l8k_w exponential(3.64e-05s)
attr unit s
par System.oss[0].ossCore[2] slope_l8k_w 1.15e-06s
attr unit s
par System.oss[0].ossCore[2] ost_rate_l16k_w exponential(4.1e-05s)
attr unit s
par System.oss[0].ossCore[2] slope_l16k_w 1.55e-06s
attr unit s
par System.oss[0].ossCore[2] ost_rate_l32k_w exponential(5.34e-05s)
attr unit s
par System.oss[0].ossCore[2] slope_l32k_w 1.88e-06s
attr unit s
par System.oss[0].ossCore[2] ost_rate_l256k_w exponential(8.35e-05s)
attr unit s
par System.oss[0].ossCore[2] slope_l256k_w 1.58e-06s
attr unit s
par System.oss[0].ossCore[2] ost_rate_g256k_w exponential(0.000437s)
attr unit s
par System.oss[0].ossCore[2] ost_rate_l64_r exponential(2e-06s)
attr unit s
par System.oss[0].ossCore[2] ost_rate_l1k_r exponential(3.05e-06s)
attr unit s
par System.oss[0].ossCore[2] ost_rate_l4k_r exponential(3.1e-06s)
attr unit s
par System.oss[0].ossCore[2] slope_l4k_r 3.2e-06s
attr unit s
par System.oss[0].ossCore[2] ost_rate_l8k_r exponential(1.2e-05s)
attr unit s
par System.oss[0].ossCore[2] slope_l8k_r 8.75e-07s
attr unit s
par System.oss[0].ossCore[2] ost_rate_l16k_r exponential(1.55e-05s)
attr unit s
par System.oss[0].ossCore[2] slope_l16k_r 1.44e-06s
attr unit s
par System.oss[0].ossCore[2] ost_rate_l32k_r exponential(2.7e-05s)
attr unit s
par System.oss[0].ossCore[2] slope_l32k_r 1.19e-06s
attr unit s
par System.oss[0].ossCore[2] ost_rate_l256k_r exponential(4.6e-05s)
attr unit s
par System.oss[0].ossCore[2] slope_l256k_r 1.12e-06s
attr unit s
par System.oss[0].ossCore[2] ost_rate_g256k_r exponential(0.000297s)
attr unit s
statistic System.oss[0].ossCore[2] waitInStation:histogram
field count 0
field mean -nan
field stddev -nan
field min -nan
field max -nan
field sum 0
field sqrsum 0
attr recordingmode histogram
attr title "Average waiting time in station"
bin	-inf	0
bin	0	0
bin	1	0
statistic System.oss[0].ossCore[2] averageIOPS:histogram
field count 1
field mean 241026.57280663
field stddev -nan
field min 241026.57280663
field max 241026.57280663
field sum 241026.57280663
field sqrsum 58093808798.91
attr recordingmode histogram
attr title "Average IO throughput"
bin	-inf	0
bin	241026.06	0
bin	241026.08	0
bin	241026.1	0
bin	241026.12	0
bin	241026.14	0
bin	241026.16	0
bin	241026.18	0
bin	241026.2	0
bin	241026.22	0
bin	241026.24	0
bin	241026.26	0
bin	241026.28	0
bin	241026.3	0
bin	241026.32	0
bin	241026.34	0
bin	241026.36	0
bin	241026.38	0
bin	241026.4	0
bin	241026.42	0
bin	241026.44	0
bin	241026.46	0
bin	241026.48	0
bin	241026.5	0
bin	241026.52	0
bin	241026.54	0
bin	241026.56	1
bin	241026.58	0
bin	241026.6	0
bin	241026.62	0
bin	241026.64	0
bin	241026.66	0
bin	241026.68	0
bin	241026.7	0
bin	241026.72	0
bin	241026.74	0
bin	241026.76	0
bin	241026.78	0
bin	241026.8	0
bin	241026.82	0
bin	241026.84	0
bin	241026.86	0
bin	241026.88	0
bin	241026.9	0
bin	241026.92	0
bin	241026.94	0
bin	241026.96	0
bin	241026.98	0
bin	241027	0
bin	241027.02	0
bin	241027.04	0
bin	241027.06	0
bin	241027.08	0
par System.oss[0].ossCore[3] typename "\"lfs.Server\""
par System.oss[0].ossCore[3] mds_rate_r exponential(3e-09s)
attr unit s
par System.oss[0].ossCore[3] mds_rate_w exponential(6e-09s)
attr unit s
par System.oss[0].ossCore[3] oss_rate exponential(0.00012s)
attr unit s
par System.oss[0].ossCore[3] one_channel_rate exponential(0.00055s)
attr unit s
par System.oss[0].ossCore[3] ost_rate_l1k_w exponential(2.55e-05s)
attr unit s
par System.oss[0].ossCore[3] ost_rate_l4k_w exponential(2.72e-05s)
attr unit s
par System.oss[0].ossCore[3] slope_l4k_w 3.2e-06s
attr unit s
par System.oss[0].ossCore[3] ost_rate_l8k_w exponential(3.64e-05s)
attr unit s
par System.oss[0].ossCore[3] slope_l8k_w 1.15e-06s
attr unit s
par System.oss[0].ossCore[3] ost_rate_l16k_w exponential(4.1e-05s)
attr unit s
par System.oss[0].ossCore[3] slope_l16k_w 1.55e-06s
attr unit s
par System.oss[0].ossCore[3] ost_rate_l32k_w exponential(5.34e-05s)
attr unit s
par System.oss[0].ossCore[3] slope_l32k_w 1.88e-06s
attr unit s
par System.oss[0].ossCore[3] ost_rate_l256k_w exponential(8.35e-05s)
attr unit s
par System.oss[0].ossCore[3] slope_l256k_w 1.58e-06s
attr unit s
par System.oss[0].ossCore[3] ost_rate_g256k_w exponential(0.000437s)
attr unit s
par System.oss[0].ossCore[3] ost_rate_l64_r exponential(2e-06s)
attr unit s
par System.oss[0].ossCore[3] ost_rate_l1k_r exponential(3.05e-06s)
attr unit s
par System.oss[0].ossCore[3] ost_rate_l4k_r exponential(3.1e-06s)
attr unit s
par System.oss[0].ossCore[3] slope_l4k_r 3.2e-06s
attr unit s
par System.oss[0].ossCore[3] ost_rate_l8k_r exponential(1.2e-05s)
attr unit s
par System.oss[0].ossCore[3] slope_l8k_r 8.75e-07s
attr unit s
par System.oss[0].ossCore[3] ost_rate_l16k_r exponential(1.55e-05s)
attr unit s
par System.oss[0].ossCore[3] slope_l16k_r 1.44e-06s
attr unit s
par System.oss[0].ossCore[3] ost_rate_l32k_r exponential(2.7e-05s)
attr unit s
par System.oss[0].ossCore[3] slope_l32k_r 1.19e-06s
attr unit s
par System.oss[0].ossCore[3] ost_rate_l256k_r exponential(4.6e-05s)
attr unit s
par System.oss[0].ossCore[3] slope_l256k_r 1.12e-06s
attr unit s
par System.oss[0].ossCore[3] ost_rate_g256k_r exponential(0.000297s)
attr unit s
statistic System.oss[0].ossCore[3] waitInStation:histogram
field count 0
field mean -nan
field stddev -nan
field min -nan
field max -nan
field sum 0
field sqrsum 0
attr recordingmode histogram
attr title "Average waiting time in station"
bin	-inf	0
bin	0	0
bin	1	0
statistic System.oss[0].ossCore[3] averageIOPS:histogram
field count 1
field mean 242013.89873945
field stddev -nan
field min 242013.89873945
field max 242013.89873945
field sum 242013.89873945
field sqrsum 58570727183.067
attr recordingmode histogram
attr title "Average IO throughput"
bin	-inf	0
bin	242013.38	0
bin	242013.4	0
bin	242013.42	0
bin	242013.44	0
bin	242013.46	0
bin	242013.48	0
bin	242013.5	0
bin	242013.52	0
bin	242013.54	0
bin	242013.56	0
bin	242013.58	0
bin	242013.6	0
bin	242013.62	0
bin	242013.64	0
bin	242013.66	0
bin	242013.68	0
bin	242013.7	0
bin	242013.72	0
bin	242013.74	0
bin	242013.76	0
bin	242013.78	0
bin	242013.8	0
bin	242013.82	0
bin	242013.84	0
bin	242013.86	0
bin	242013.88	1
bin	242013.9	0
bin	242013.92	0
bin	242013.94	0
bin	242013.96	0
bin	242013.98	0
bin	242014	0
bin	242014.02	0
bin	242014.04	0
bin	242014.06	0
bin	242014.08	0
bin	242014.1	0
bin	242014.12	0
bin	242014.14	0
bin	242014.16	0
bin	242014.18	0
bin	242014.2	0
bin	242014.22	0
bin	242014.24	0
bin	242014.26	0
bin	242014.28	0
bin	242014.3	0
bin	242014.32	0
bin	242014.34	0
bin	242014.36	0
bin	242014.38	0
bin	242014.4	0
par System.oss[0].ossExit typename "\"lfs.Router\""
par System.oss[0] typename "\"lfs.OSS\""
par System.oss[0] core_count 4
par System.oss[1].ossEntry typename "\"lfs.Router\""
par System.oss[1].ossQueue[0] typename "\"lfs.Queue\""
statistic System.oss[1].ossQueue[0] queueWaiting:stats
field count 2513
field mean 0
field stddev 0
field min 0
field max 0
field sum 0
field sqrsum 0
attr recordingmode stats
attr title "Waiting time within queue"
statistic System.oss[1].ossQueue[0] queueLength:stats
field count 7539
field mean 0
field stddev 0
field min 0
field max 0
field sum 0
field sqrsum 0
attr recordingmode stats
attr title "Length of the queue"
par System.oss[1].ossQueue[1] typename "\"lfs.Queue\""
statistic System.oss[1].ossQueue[1] queueWaiting:stats
field count 2508
field mean 0
field stddev 0
field min 0
field max 0
field sum 0
field sqrsum 0
attr recordingmode stats
attr title "Waiting time within queue"
statistic System.oss[1].ossQueue[1] queueLength:stats
field count 7524
field mean 0
field stddev 0
field min 0
field max 0
field sum 0
field sqrsum 0
attr recordingmode stats
attr title "Length of the queue"
par System.oss[1].ossQueue[2] typename "\"lfs.Queue\""
statistic System.oss[1].ossQueue[2] queueWaiting:stats
field count 2600
field mean 0
field stddev 0
field min 0
field max 0
field sum 0
field sqrsum 0
attr recordingmode stats
attr title "Waiting time within queue"
statistic System.oss[1].ossQueue[2] queueLength:stats
field count 7800
field mean 0
field stddev 0
field min 0
field max 0
field sum 0
field sqrsum 0
attr recordingmode stats
attr title "Length of the queue"
par System.oss[1].ossQueue[3] typename "\"lfs.Queue\""
statistic System.oss[1].ossQueue[3] queueWaiting:stats
field count 2512
field mean 0
field stddev 0
field min 0
field max 0
field sum 0
field sqrsum 0
attr recordingmode stats
attr title "Waiting time within queue"
statistic System.oss[1].ossQueue[3] queueLength:stats
field count 7536
field mean 0
field stddev 0
field min 0
field max 0
field sum 0
field sqrsum 0
attr recordingmode stats
attr title "Length of the queue"
par System.oss[1].ossCore[0] typename "\"lfs.Server\""
par System.oss[1].ossCore[0] mds_rate_r exponential(3e-09s)
attr unit s
par System.oss[1].ossCore[0] mds_rate_w exponential(6e-09s)
attr unit s
par System.oss[1].ossCore[0] oss_rate exponential(0.00012s)
attr unit s
par System.oss[1].ossCore[0] one_channel_rate exponential(0.00055s)
attr unit s
par System.oss[1].ossCore[0] ost_rate_l1k_w exponential(2.55e-05s)
attr unit s
par System.oss[1].ossCore[0] ost_rate_l4k_w exponential(2.72e-05s)
attr unit s
par System.oss[1].ossCore[0] slope_l4k_w 3.2e-06s
attr unit s
par System.oss[1].ossCore[0] ost_rate_l8k_w exponential(3.64e-05s)
attr unit s
par System.oss[1].ossCore[0] slope_l8k_w 1.15e-06s
attr unit s
par System.oss[1].ossCore[0] ost_rate_l16k_w exponential(4.1e-05s)
attr unit s
par System.oss[1].ossCore[0] slope_l16k_w 1.55e-06s
attr unit s
par System.oss[1].ossCore[0] ost_rate_l32k_w exponential(5.34e-05s)
attr unit s
par System.oss[1].ossCore[0] slope_l32k_w 1.88e-06s
attr unit s
par System.oss[1].ossCore[0] ost_rate_l256k_w exponential(8.35e-05s)
attr unit s
par System.oss[1].ossCore[0] slope_l256k_w 1.58e-06s
attr unit s
par System.oss[1].ossCore[0] ost_rate_g256k_w exponential(0.000437s)
attr unit s
par System.oss[1].ossCore[0] ost_rate_l64_r exponential(2e-06s)
attr unit s
par System.oss[1].ossCore[0] ost_rate_l1k_r exponential(3.05e-06s)
attr unit s
par System.oss[1].ossCore[0] ost_rate_l4k_r exponential(3.1e-06s)
attr unit s
par System.oss[1].ossCore[0] slope_l4k_r 3.2e-06s
attr unit s
par System.oss[1].ossCore[0] ost_rate_l8k_r exponential(1.2e-05s)
attr unit s
par System.oss[1].ossCore[0] slope_l8k_r 8.75e-07s
attr unit s
par System.oss[1].ossCore[0] ost_rate_l16k_r exponential(1.55e-05s)
attr unit s
par System.oss[1].ossCore[0] slope_l16k_r 1.44e-06s
attr unit s
par System.oss[1].ossCore[0] ost_rate_l32k_r exponential(2.7e-05s)
attr unit s
par System.oss[1].ossCore[0] slope_l32k_r 1.19e-06s
attr unit s
par System.oss[1].ossCore[0] ost_rate_l256k_r exponential(4.6e-05s)
attr unit s
par System.oss[1].ossCore[0] slope_l256k_r 1.12e-06s
attr unit s
par System.oss[1].ossCore[0] ost_rate_g256k_r exponential(0.000297s)
attr unit s
statistic System.oss[1].ossCore[0] waitInStation:histogram
field count 0
field mean -nan
field stddev -nan
field min -nan
field max -nan
field sum 0
field sqrsum 0
attr recordingmode histogram
attr title "Average waiting time in station"
bin	-inf	0
bin	0	0
bin	1	0
statistic System.oss[1].ossCore[0] averageIOPS:histogram
field count 1
field mean 240602.03659508
field stddev -nan
field min 240602.03659508
field max 240602.03659508
field sum 240602.03659508
field sqrsum 57889340013.701
attr recordingmode histogram
attr title "Average IO throughput"
bin	-inf	0
bin	240601.52	0
bin	240601.54	0
bin	240601.56	0
bin	240601.58	0
bin	240601.6	0
bin	240601.62	0
bin	240601.64	0
bin	240601.66	0
bin	240601.68	0
bin	240601.7	0
bin	240601.72	0
bin	240601.74	0
bin	240601.76	0
bin	240601.78	0
bin	240601.8	0
bin	240601.82	0
bin	240601.84	0
bin	240601.86	0
bin	240601.88	0
bin	240601.9	0
bin	240601.92	0
bin	240601.94	0
bin	240601.96	0
bin	240601.98	0
bin	240602	0
bin	240602.02	1
bin	240602.04	0
bin	240602.06	0
bin	240602.08	0
bin	240602.1	0
bin	240602.12	0
bin	240602.14	0
bin	240602.16	0
bin	240602.18	0
bin	240602.2	0
bin	240602.22	0
bin	240602.24	0
bin	240602.26	0
bin	240602.28	0
bin	240602.3	0
bin	240602.32	0
bin	240602.34	0
bin	240602.36	0
bin	240602.38	0
bin	240602.4	0
bin	240602.42	0
bin	240602.44	0
bin	240602.46	0
bin	240602.48	0
bin	240602.5	0
bin	240602.52	0
bin	240602.54	0
par System.oss[1].ossCore[1] typename "\"lfs.Server\""
par System.oss[1].ossCore[1] mds_rate_r exponential(3e-09s)
attr unit s
par System.oss[1].ossCore[1] mds_rate_w exponential(6e-09s)
attr unit s
par System.oss[1].ossCore[1] oss_rate exponential(0.00012s)
attr unit s
par System.oss[1].ossCore[1] one_channel_rate exponential(0.00055s)
attr unit s
par System.oss[1].ossCore[1] ost_rate_l1k_w exponential(2.55e-05s)
attr unit s
par System.oss[1].ossCore[1] ost_rate_l4k_w exponential(2.72e-05s)
attr unit s
par System.oss[1].ossCore[1] slope_l4k_w 3.2e-06s
attr unit s
par System.oss[1].ossCore[1] ost_rate_l8k_w exponential(3.64e-05s)
attr unit s
par System.oss[1].ossCore[1] slope_l8k_w 1.15e-06s
attr unit s
par System.oss[1].ossCore[1] ost_rate_l16k_w exponential(4.1e-05s)
attr unit s
par System.oss[1].ossCore[1] slope_l16k_w 1.55e-06s
attr unit s
par System.oss[1].ossCore[1] ost_rate_l32k_w exponential(5.34e-05s)
attr unit s
par System.oss[1].ossCore[1] slope_l32k_w 1.88e-06s
attr unit s
par System.oss[1].ossCore[1] ost_rate_l256k_w exponential(8.35e-05s)
attr unit s
par System.oss[1].ossCore[1] slope_l256k_w 1.58e-06s
attr unit s
par System.oss[1].ossCore[1] ost_rate_g256k_w exponential(0.000437s)
attr unit s
par System.oss[1].ossCore[1] ost_rate_l64_r exponential(2e-06s)
attr unit s
par System.oss[1].ossCore[1] ost_rate_l1k_r exponential(3.05e-06s)
attr unit s
par System.oss[1].ossCore[1] ost_rate_l4k_r exponential(3.1e-06s)
attr unit s
par System.oss[1].ossCore[1] slope_l4k_r 3.2e-06s
attr unit s
par System.oss[1].ossCore[1] ost_rate_l8k_r exponential(1.2e-05s)
attr unit s
par System.oss[1].ossCore[1] slope_l8k_r 8.75e-07s
attr unit s
par System.oss[1].ossCore[1] ost_rate_l16k_r exponential(1.55e-05s)
attr unit s
par System.oss[1].ossCore[1] slope_l16k_r 1.44e-06s
attr unit s
par System.oss[1].ossCore[1] ost_rate_l32k_r exponential(2.7e-05s)
attr unit s
par System.oss[1].ossCore[1] slope_l32k_r 1.19e-06s
attr unit s
par System.oss[1].ossCore[1] ost_rate_l256k_r exponential(4.6e-05s)
attr unit s
par System.oss[1].ossCore[1] slope_l256k_r 1.12e-06s
attr unit s
par System.oss[1].ossCore[1] ost_rate_g256k_r exponential(0.000297s)
attr unit s
statistic System.oss[1].ossCore[1] waitInStation:histogram
field count 0
field mean -nan
field stddev -nan
field min -nan
field max -nan
field sum 0
field sqrsum 0
attr recordingmode histogram
attr title "Average waiting time in station"
bin	-inf	0
bin	0	0
bin	1	0
statistic System.oss[1].ossCore[1] averageIOPS:histogram
field count 1
field mean 238753.95059441
field stddev -nan
field min 238753.95059441
field max 238753.95059441
field sum 238753.95059441
field sqrsum 57003448924.437
attr recordingmode histogram
attr title "Average IO throughput"
bin	-inf	0
bin	238753.44	0
bin	238753.46	0
bin	238753.48	0
bin	238753.5	0
bin	238753.52	0
bin	238753.54	0
bin	238753.56	0
bin	238753.58	0
bin	238753.6	0
bin	238753.62	0
bin	238753.64	0
bin	238753.66	0
bin	238753.68	0
bin	238753.7	0
bin	238753.72	0
bin	238753.74	0
bin	238753.76	0
bin	238753.78	0
bin	238753.8	0
bin	238753.82	0
bin	238753.84	0
bin	238753.86	0
bin	238753.88	0
bin	238753.9	0
bin	238753.92	0
bin	238753.94	1
bin	238753.96	0
bin	238753.98	0
bin	238754	0
bin	238754.02	0
bin	238754.04	0
bin	238754.06	0
bin	238754.08	0
bin	238754.1	0
bin	238754.12	0
bin	238754.14	0
bin	238754.16	0
bin	238754.18	0
bin	238754.2	0
bin	238754.22	0
bin	238754.24	0
bin	238754.26	0
bin	238754.28	0
bin	238754.3	0
bin	238754.32	0
bin	238754.34	0
bin	238754.36	0
bin	238754.38	0
bin	238754.4	0
bin	238754.42	0
bin	238754.44	0
bin	238754.46	0
par System.oss[1].ossCore[2] typename "\"lfs.Server\""
par System.oss[1].ossCore[2] mds_rate_r exponential(3e-09s)
attr unit s
par System.oss[1].ossCore[2] mds_rate_w exponential(6e-09s)
attr unit s
par System.oss[1].ossCore[2] oss_rate exponential(0.00012s)
attr unit s
par System.oss[1].ossCore[2] one_channel_rate exponential(0.00055s)
attr unit s
par System.oss[1].ossCore[2] ost_rate_l1k_w exponential(2.55e-05s)
attr unit s
par System.oss[1].ossCore[2] ost_rate_l4k_w exponential(2.72e-05s)
attr unit s
par System.oss[1].ossCore[2] slope_l4k_w 3.2e-06s
attr unit s
par System.oss[1].ossCore[2] ost_rate_l8k_w exponential(3.64e-05s)
attr unit s
par System.oss[1].ossCore[2] slope_l8k_w 1.15e-06s
attr unit s
par System.oss[1].ossCore[2] ost_rate_l16k_w exponential(4.1e-05s)
attr unit s
par System.oss[1].ossCore[2] slope_l16k_w 1.55e-06s
attr unit s
par System.oss[1].ossCore[2] ost_rate_l32k_w exponential(5.34e-05s)
attr unit s
par System.oss[1].ossCore[2] slope_l32k_w 1.88e-06s
attr unit s
par System.oss[1].ossCore[2] ost_rate_l256k_w exponential(8.35e-05s)
attr unit s
par System.oss[1].ossCore[2] slope_l256k_w 1.58e-06s
attr unit s
par System.oss[1].ossCore[2] ost_rate_g256k_w exponential(0.000437s)
attr unit s
par System.oss[1].ossCore[2] ost_rate_l64_r exponential(2e-06s)
attr unit s
par System.oss[1].ossCore[2] ost_rate_l1k_r exponential(3.05e-06s)
attr unit s
par System.oss[1].ossCore[2] ost_rate_l4k_r exponential(3.1e-06s)
attr unit s
par System.oss[1].ossCore[2] slope_l4k_r 3.2e-06s
attr unit s
par System.oss[1].ossCore[2] ost_rate_l8k_r exponential(1.2e-05s)
attr unit s
par System.oss[1].ossCore[2] slope_l8k_r 8.75e-07s
attr unit s
par System.oss[1].ossCore[2] ost_rate_l16k_r exponential(1.55e-05s)
attr unit s
par System.oss[1].ossCore[2] slope_l16k_r 1.44e-06s
attr unit s
par System.oss[1].ossCore[2] ost_rate_l32k_r exponential(2.7e-05s)
attr unit s
par System.oss[1].ossCore[2] slope_l32k_r 1.19e-06s
attr unit s
par System.oss[1].ossCore[2] ost_rate_l256k_r exponential(4.6e-05s)
attr unit s
par System.oss[1].ossCore[2] slope_l256k_r 1.12e-06s
attr unit s
par System.oss[1].ossCore[2] ost_rate_g256k_r exponential(0.000297s)
attr unit s
statistic System.oss[1].ossCore[2] waitInStation:histogram
field count 0
field mean -nan
field stddev -nan
field min -nan
field max -nan
field sum 0
field sqrsum 0
attr recordingmode histogram
attr title "Average waiting time in station"
bin	-inf	0
bin	0	0
bin	1	0
statistic System.oss[1].ossCore[2] averageIOPS:histogram
field count 1
field mean 248059.27961714
field stddev -nan
field min 248059.27961714
field max 248059.27961714
field sum 248059.27961714
field sqrsum 61533406204.177
attr recordingmode histogram
attr title "Average IO throughput"
bin	-inf	0
bin	248058.76	0
bin	248058.78	0
bin	248058.8	0
bin	248058.82	0
bin	248058.84	0
bin	248058.86	0
bin	248058.88	0
bin	248058.9	0
bin	248058.92	0
bin	248058.94	0
bin	248058.96	0
bin	248058.98	0
bin	248059	0
bin	248059.02	0
bin	248059.04	0
bin	248059.06	0
bin	248059.08	0
bin	248059.1	0
bin	248059.12	0
bin	248059.14	0
bin	248059.16	0
bin	248059.18	0
bin	248059.2	0
bin	248059.22	0
bin	248059.24	0
bin	248059.26	1
bin	248059.28	0
bin	248059.3	0
bin	248059.32	0
bin	248059.34	0
bin	248059.36	0
bin	248059.38	0
bin	248059.4	0
bin	248059.42	0
bin	248059.44	0
bin	248059.46	0
bin	248059.48	0
bin	248059.5	0
bin	248059.52	0
bin	248059.54	0
bin	248059.56	0
bin	248059.58	0
bin	248059.6	0
bin	248059.62	0
bin	248059.64	0
bin	248059.66	0
bin	248059.68	0
bin	248059.7	0
bin	248059.72	0
bin	248059.74	0
bin	248059.76	0
bin	248059.78	0
par System.oss[1].ossCore[3] typename "\"lfs.Server\""
par System.oss[1].ossCore[3] mds_rate_r exponential(3e-09s)
attr unit s
par System.oss[1].ossCore[3] mds_rate_w exponential(6e-09s)
attr unit s
par System.oss[1].ossCore[3] oss_rate exponential(0.00012s)
attr unit s
par System.oss[1].ossCore[3] one_channel_rate exponential(0.00055s)
attr unit s
par System.oss[1].ossCore[3] ost_rate_l1k_w exponential(2.55e-05s)
attr unit s
par System.oss[1].ossCore[3] ost_rate_l4k_w exponential(2.72e-05s)
attr unit s
par System.oss[1].ossCore[3] slope_l4k_w 3.2e-06s
attr unit s
par System.oss[1].ossCore[3] ost_rate_l8k_w exponential(3.64e-05s)
attr unit s
par System.oss[1].ossCore[3] slope_l8k_w 1.15e-06s
attr unit s
par System.oss[1].ossCore[3] ost_rate_l16k_w exponential(4.1e-05s)
attr unit s
par System.oss[1].ossCore[3] slope_l16k_w 1.55e-06s
attr unit s
par System.oss[1].ossCore[3] ost_rate_l32k_w exponential(5.34e-05s)
attr unit s
par System.oss[1].ossCore[3] slope_l32k_w 1.88e-06s
attr unit s
par System.oss[1].ossCore[3] ost_rate_l256k_w exponential(8.35e-05s)
attr unit s
par System.oss[1].ossCore[3] slope_l256k_w 1.58e-06s
attr unit s
par System.oss[1].ossCore[3] ost_rate_g256k_w exponential(0.000437s)
attr unit s
par System.oss[1].ossCore[3] ost_rate_l64_r exponential(2e-06s)
attr unit s
par System.oss[1].ossCore[3] ost_rate_l1k_r exponential(3.05e-06s)
attr unit s
par System.oss[1].ossCore[3] ost_rate_l4k_r exponential(3.1e-06s)
attr unit s
par System.oss[1].ossCore[3] slope_l4k_r 3.2e-06s
attr unit s
par System.oss[1].ossCore[3] ost_rate_l8k_r exponential(1.2e-05s)
attr unit s
par System.oss[1].ossCore[3] slope_l8k_r 8.75e-07s
attr unit s
par System.oss[1].ossCore[3] ost_rate_l16k_r exponential(1.55e-05s)
attr unit s
par System.oss[1].ossCore[3] slope_l16k_r 1.44e-06s
attr unit s
par System.oss[1].ossCore[3] ost_rate_l32k_r exponential(2.7e-05s)
attr unit s
par System.oss[1].ossCore[3] slope_l32k_r 1.19e-06s
attr unit s
par System.oss[1].ossCore[3] ost_rate_l256k_r exponential(4.6e-05s)
attr unit s
par System.oss[1].ossCore[3] slope_l256k_r 1.12e-06s
attr unit s
par System.oss[1].ossCore[3] ost_rate_g256k_r exponential(0.000297s)
attr unit s
statistic System.oss[1].ossCore[3] waitInStation:histogram
field count 0
field mean -nan
field stddev -nan
field min -nan
field max -nan
field sum 0
field sqrsum 0
attr recordingmode histogram
attr title "Average waiting time in station"
bin	-inf	0
bin	0	0
bin	1	0
statistic System.oss[1].ossCore[3] averageIOPS:histogram
field count 1
field mean 240088.37199195
field stddev -nan
field min 240088.37199195
field max 240088.37199195
field sum 240088.37199195
field sqrsum 57642426365.745
attr recordingmode histogram
attr title "Average IO throughput"
bin	-inf	0
bin	240087.86	0
bin	240087.88	0
bin	240087.9	0
bin	240087.92	0
bin	240087.94	0
bin	240087.96	0
bin	240087.98	0
bin	240088	0
bin	240088.02	0
bin	240088.04	0
bin	240088.06	0
bin	240088.08	0
bin	240088.1	0
bin	240088.12	0
bin	240088.14	0
bin	240088.16	0
bin	240088.18	0
bin	240088.2	0
bin	240088.22	0
bin	240088.24	0
bin	240088.26	0
bin	240088.28	0
bin	240088.3	0
bin	240088.32	0
bin	240088.34	0
bin	240088.36	1
bin	240088.38	0
bin	240088.4	0
bin	240088.42	0
bin	240088.44	0
bin	240088.46	0
bin	240088.48	0
bin	240088.5	0
bin	240088.52	0
bin	240088.54	0
bin	240088.56	0
bin	240088.58	0
bin	240088.6	0
bin	240088.62	0
bin	240088.64	0
bin	240088.66	0
bin	240088.68	0
bin	240088.7	0
bin	240088.72	0
bin	240088.74	0
bin	240088.76	0
bin	240088.78	0
bin	240088.8	0
bin	240088.82	0
bin	240088.84	0
bin	240088.86	0
bin	240088.88	0
par System.oss[1].ossExit typename "\"lfs.Router\""
par System.oss[1] typename "\"lfs.OSS\""
par System.oss[1] core_count 4
par System.oss[2].ossEntry typename "\"lfs.Router\""
par System.oss[2].ossQueue[0] typename "\"lfs.Queue\""
statistic System.oss[2].ossQueue[0] queueWaiting:stats
field count 2237
field mean 0
field stddev 0
field min 0
field max 0
field sum 0
field sqrsum 0
attr recordingmode stats
attr title "Waiting time within queue"
statistic System.oss[2].ossQueue[0] queueLength:stats
field count 6711
field mean 0
field stddev 0
field min 0
field max 0
field sum 0
field sqrsum 0
attr recordingmode stats
attr title "Length of the queue"
par System.oss[2].ossQueue[1] typename "\"lfs.Queue\""
statistic System.oss[2].ossQueue[1] queueWaiting:stats
field count 2336
field mean 0
field stddev 0
field min 0
field max 0
field sum 0
field sqrsum 0
attr recordingmode stats
attr title "Waiting time within queue"
statistic System.oss[2].ossQueue[1] queueLength:stats
field count 7008
field mean 0
field stddev 0
field min 0
field max 0
field sum 0
field sqrsum 0
attr recordingmode stats
attr title "Length of the queue"
par System.oss[2].ossQueue[2] typename "\"lfs.Queue\""
statistic System.oss[2].ossQueue[2] queueWaiting:stats
field count 2296
field mean 0
field stddev 0
field min 0
field max 0
field sum 0
field sqrsum 0
attr recordingmode stats
attr title "Waiting time within queue"
statistic System.oss[2].ossQueue[2] queueLength:stats
field count 6888
field mean 0
field stddev 0
field min 0
field max 0
field sum 0
field sqrsum 0
attr recordingmode stats
attr title "Length of the queue"
par System.oss[2].ossQueue[3] typename "\"lfs.Queue\""
statistic System.oss[2].ossQueue[3] queueWaiting:stats
field count 2343
field mean 0
field stddev 0
field min 0
field max 0
field sum 0
field sqrsum 0
attr recordingmode stats
attr title "Waiting time within queue"
statistic System.oss[2].ossQueue[3] queueLength:stats
field count 7029
field mean 0
field stddev 0
field min 0
field max 0
field sum 0
field sqrsum 0
attr recordingmode stats
attr title "Length of the queue"
par System.oss[2].ossCore[0] typename "\"lfs.Server\""
par System.oss[2].ossCore[0] mds_rate_r exponential(3e-09s)
attr unit s
par System.oss[2].ossCore[0] mds_rate_w exponential(6e-09s)
attr unit s
par System.oss[2].ossCore[0] oss_rate exponential(0.00012s)
attr unit s
par System.oss[2].ossCore[0] one_channel_rate exponential(0.00055s)
attr unit s
par System.oss[2].ossCore[0] ost_rate_l1k_w exponential(2.55e-05s)
attr unit s
par System.oss[2].ossCore[0] ost_rate_l4k_w exponential(2.72e-05s)
attr unit s
par System.oss[2].ossCore[0] slope_l4k_w 3.2e-06s
attr unit s
par System.oss[2].ossCore[0] ost_rate_l8k_w exponential(3.64e-05s)
attr unit s
par System.oss[2].ossCore[0] slope_l8k_w 1.15e-06s
attr unit s
par System.oss[2].ossCore[0] ost_rate_l16k_w exponential(4.1e-05s)
attr unit s
par System.oss[2].ossCore[0] slope_l16k_w 1.55e-06s
attr unit s
par System.oss[2].ossCore[0] ost_rate_l32k_w exponential(5.34e-05s)
attr unit s
par System.oss[2].ossCore[0] slope_l32k_w 1.88e-06s
attr unit s
par System.oss[2].ossCore[0] ost_rate_l256k_w exponential(8.35e-05s)
attr unit s
par System.oss[2].ossCore[0] slope_l256k_w 1.58e-06s
attr unit s
par System.oss[2].ossCore[0] ost_rate_g256k_w exponential(0.000437s)
attr unit s
par System.oss[2].ossCore[0] ost_rate_l64_r exponential(2e-06s)
attr unit s
par System.oss[2].ossCore[0] ost_rate_l1k_r exponential(3.05e-06s)
attr unit s
par System.oss[2].ossCore[0] ost_rate_l4k_r exponential(3.1e-06s)
attr unit s
par System.oss[2].ossCore[0] slope_l4k_r 3.2e-06s
attr unit s
par System.oss[2].ossCore[0] ost_rate_l8k_r exponential(1.2e-05s)
attr unit s
par System.oss[2].ossCore[0] slope_l8k_r 8.75e-07s
attr unit s
par System.oss[2].ossCore[0] ost_rate_l16k_r exponential(1.55e-05s)
attr unit s
par System.oss[2].ossCore[0] slope_l16k_r 1.44e-06s
attr unit s
par System.oss[2].ossCore[0] ost_rate_l32k_r exponential(2.7e-05s)
attr unit s
par System.oss[2].ossCore[0] slope_l32k_r 1.19e-06s
attr unit s
par System.oss[2].ossCore[0] ost_rate_l256k_r exponential(4.6e-05s)
attr unit s
par System.oss[2].ossCore[0] slope_l256k_r 1.12e-06s
attr unit s
par System.oss[2].ossCore[0] ost_rate_g256k_r exponential(0.000297s)
attr unit s
statistic System.oss[2].ossCore[0] waitInStation:histogram
field count 0
field mean -nan
field stddev -nan
field min -nan
field max -nan
field sum 0
field sqrsum 0
attr recordingmode histogram
attr title "Average waiting time in station"
bin	-inf	0
bin	0	0
bin	1	0
statistic System.oss[2].ossCore[0] averageIOPS:histogram
field count 1
field mean 213078.98656255
field stddev -nan
field min 213078.98656255
field max 213078.98656255
field sum 213078.98656255
field sqrsum 45402654514.524
attr recordingmode histogram
attr title "Average IO throughput"
bin	-inf	0
bin	213078.48	0
bin	213078.5	0
bin	213078.52	0
bin	213078.54	0
bin	213078.56	0
bin	213078.58	0
bin	213078.6	0
bin	213078.62	0
bin	213078.64	0
bin	213078.66	0
bin	213078.68	0
bin	213078.7	0
bin	213078.72	0
bin	213078.74	0
bin	213078.76	0
bin	213078.78	0
bin	213078.8	0
bin	213078.82	0
bin	213078.84	0
bin	213078.86	0
bin	213078.88	0
bin	213078.9	0
bin	213078.92	0
bin	213078.94	0
bin	213078.96	0
bin	213078.98	1
bin	213079	0
bin	213079.02	0
bin	213079.04	0
bin	213079.06	0
bin	213079.08	0
bin	213079.1	0
bin	213079.12	0
bin	213079.14	0
bin	213079.16	0
bin	213079.18	0
bin	213079.2	0
bin	213079.22	0
bin	213079.24	0
bin	213079.26	0
bin	213079.28	0
bin	213079.3	0
bin	213079.32	0
bin	213079.34	0
bin	213079.36	0
bin	213079.38	0
bin	213079.4	0
bin	213079.42	0
bin	213079.44	0
bin	213079.46	0
bin	213079.48	0
bin	213079.5	0
par System.oss[2].ossCore[1] typename "\"lfs.Server\""
par System.oss[2].ossCore[1] mds_rate_r exponential(3e-09s)
attr unit s
par System.oss[2].ossCore[1] mds_rate_w exponential(6e-09s)
attr unit s
par System.oss[2].ossCore[1] oss_rate exponential(0.00012s)
attr unit s
par System.oss[2].ossCore[1] one_channel_rate exponential(0.00055s)
attr unit s
par System.oss[2].ossCore[1] ost_rate_l1k_w exponential(2.55e-05s)
attr unit s
par System.oss[2].ossCore[1] ost_rate_l4k_w exponential(2.72e-05s)
attr unit s
par System.oss[2].ossCore[1] slope_l4k_w 3.2e-06s
attr unit s
par System.oss[2].ossCore[1] ost_rate_l8k_w exponential(3.64e-05s)
attr unit s
par System.oss[2].ossCore[1] slope_l8k_w 1.15e-06s
attr unit s
par System.oss[2].ossCore[1] ost_rate_l16k_w exponential(4.1e-05s)
attr unit s
par System.oss[2].ossCore[1] slope_l16k_w 1.55e-06s
attr unit s
par System.oss[2].ossCore[1] ost_rate_l32k_w exponential(5.34e-05s)
attr unit s
par System.oss[2].ossCore[1] slope_l32k_w 1.88e-06s
attr unit s
par System.oss[2].ossCore[1] ost_rate_l256k_w exponential(8.35e-05s)
attr unit s
par System.oss[2].ossCore[1] slope_l256k_w 1.58e-06s
attr unit s
par System.oss[2].ossCore[1] ost_rate_g256k_w exponential(0.000437s)
attr unit s
par System.oss[2].ossCore[1] ost_rate_l64_r exponential(2e-06s)
attr unit s
par System.oss[2].ossCore[1] ost_rate_l1k_r exponential(3.05e-06s)
attr unit s
par System.oss[2].ossCore[1] ost_rate_l4k_r exponential(3.1e-06s)
attr unit s
par System.oss[2].ossCore[1] slope_l4k_r 3.2e-06s
attr unit s
par System.oss[2].ossCore[1] ost_rate_l8k_r exponential(1.2e-05s)
attr unit s
par System.oss[2].ossCore[1] slope_l8k_r 8.75e-07s
attr unit s
par System.oss[2].ossCore[1] ost_rate_l16k_r exponential(1.55e-05s)
attr unit s
par System.oss[2].ossCore[1] slope_l16k_r 1.44e-06s
attr unit s
par System.oss[2].ossCore[1] ost_rate_l32k_r exponential(2.7e-05s)
attr unit s
par System.oss[2].ossCore[1] slope_l32k_r 1.19e-06s
attr unit s
par System.oss[2].ossCore[1] ost_rate_l256k_r exponential(4.6e-05s)
attr unit s
par System.oss[2].ossCore[1] slope_l256k_r 1.12e-06s
attr unit s
par System.oss[2].ossCore[1] ost_rate_g256k_r exponential(0.000297s)
attr unit s
statistic System.oss[2].ossCore[1] waitInStation:histogram
field count 0
field mean -nan
field stddev -nan
field min -nan
field max -nan
field sum 0
field sqrsum 0
attr recordingmode histogram
attr title "Average waiting time in station"
bin	-inf	0
bin	0	0
bin	1	0
statistic System.oss[2].ossCore[1] averageIOPS:histogram
field count 1
field mean 222068.21387749
field stddev -nan
field min 222068.21387749
field max 222068.21387749
field sum 222068.21387749
field sqrsum 49314291614.738
attr recordingmode histogram
attr title "Average IO throughput"
bin	-inf	0
bin	222067.7	0
bin	222067.72	0
bin	222067.74	0
bin	222067.76	0
bin	222067.78	0
bin	222067.8	0
bin	222067.82	0
bin	222067.84	0
bin	222067.86	0
bin	222067.88	0
bin	222067.9	0
bin	222067.92	0
bin	222067.94	0
bin	222067.96	0
bin	222067.98	0
bin	222068	0
bin	222068.02	0
bin	222068.04	0
bin	222068.06	0
bin	222068.08	0
bin	222068.1	0
bin	222068.12	0
bin	222068.14	0
bin	222068.16	0
bin	222068.18	0
bin	222068.2	1
bin	222068.22	0
bin	222068.24	0
bin	222068.26	0
bin	222068.28	0
bin	222068.3	0
bin	222068.32	0
bin	222068.34	0
bin	222068.36	0
bin	222068.38	0
bin	222068.4	0
bin	222068.42	0
bin	222068.44	0
bin	222068.46	0
bin	222068.48	0
bin	222068.5	0
bin	222068.52	0
bin	222068.54	0
bin	222068.56	0
bin	222068.58	0
bin	222068.6	0
bin	222068.62	0
bin	222068.64	0
bin	222068.66	0
bin	222068.68	0
bin	222068.7	0
bin	222068.72	0
par System.oss[2].ossCore[2] typename "\"lfs.Server\""
par System.oss[2].ossCore[2] mds_rate_r exponential(3e-09s)
attr unit s
par System.oss[2].ossCore[2] mds_rate_w exponential(6e-09s)
attr unit s
par System.oss[2].ossCore[2] oss_rate exponential(0.00012s)
attr unit s
par System.oss[2].ossCore[2] one_channel_rate exponential(0.00055s)
attr unit s
par System.oss[2].ossCore[2] ost_rate_l1k_w exponential(2.55e-05s)
attr unit s
par System.oss[2].ossCore[2] ost_rate_l4k_w exponential(2.72e-05s)
attr unit s
par System.oss[2].ossCore[2] slope_l4k_w 3.2e-06s
attr unit s
par System.oss[2].ossCore[2] ost_rate_l8k_w exponential(3.64e-05s)
attr unit s
par System.oss[2].ossCore[2] slope_l8k_w 1.15e-06s
attr unit s
par System.oss[2].ossCore[2] ost_rate_l16k_w exponential(4.1e-05s)
attr unit s
par System.oss[2].ossCore[2] slope_l16k_w 1.55e-06s
attr unit s
par System.oss[2].ossCore[2] ost_rate_l32k_w exponential(5.34e-05s)
attr unit s
par System.oss[2].ossCore[2] slope_l32k_w 1.88e-06s
attr unit s
par System.oss[2].ossCore[2] ost_rate_l256k_w exponential(8.35e-05s)
attr unit s
par System.oss[2].ossCore[2] slope_l256k_w 1.58e-06s
attr unit s
par System.oss[2].ossCore[2] ost_rate_g256k_w exponential(0.000437s)
attr unit s
par System.oss[2].ossCore[2] ost_rate_l64_r exponential(2e-06s)
attr unit s
par System.oss[2].ossCore[2] ost_rate_l1k_r exponential(3.05e-06s)
attr unit s
par System.oss[2].ossCore[2] ost_rate_l4k_r exponential(3.1e-06s)
attr unit s
par System.oss[2].ossCore[2] slope_l4k_r 3.2e-06s
attr unit s
par System.oss[2].ossCore[2] ost_rate_l8k_r exponential(1.2e-05s)
attr unit s
par System.oss[2].ossCore[2] slope_l8k_r 8.75e-07s
attr unit s
par System.oss[2].ossCore[2] ost_rate_l16k_r exponential(1.55e-05s)
attr unit s
par System.oss[2].ossCore[2] slope_l16k_r 1.44e-06s
attr unit s
par System.oss[2].ossCore[2] ost_rate_l32k_r exponential(2.7e-05s)
attr unit s
par System.oss[2].ossCore[2] slope_l32k_r 1.19e-06s
attr unit s
par System.oss[2].ossCore[2] ost_rate_l256k_r exponential(4.6e-05s)
attr unit s
par System.oss[2].ossCore[2] slope_l256k_r 1.12e-06s
attr unit s
par System.oss[2].ossCore[2] ost_rate_g256k_r exponential(0.000297s)
attr unit s
statistic System.oss[2].ossCore[2] waitInStation:histogram
field count 0
field mean -nan
field stddev -nan
field min -nan
field max -nan
field sum 0
field sqrsum 0
attr recordingmode histogram
attr title "Average waiting time in station"
bin	-inf	0
bin	0	0
bin	1	0
statistic System.oss[2].ossCore[2] averageIOPS:histogram
field count 1
field mean 218954.08178199
field stddev -nan
field min 218954.08178199
field max 218954.08178199
field sum 218954.08178199
field sqrsum 47940889928.996
attr recordingmode histogram
attr title "Average IO throughput"
bin	-inf	0
bin	218953.58	0
bin	218953.6	0
bin	218953.62	0
bin	218953.64	0
bin	218953.66	0
bin	218953.68	0
bin	218953.7	0
bin	218953.72	0
bin	218953.74	0
bin	218953.76	0
bin	218953.78	0
bin	218953.8	0
bin	218953.82	0
bin	218953.84	0
bin	218953.86	0
bin	218953.88	0
bin	218953.9	0
bin	218953.92	0
bin	218953.94	0
bin	218953.96	0
bin	218953.98	0
bin	218954	0
bin	218954.02	0
bin	218954.04	0
bin	218954.06	0
bin	218954.08	1
bin	218954.1	0
bin	218954.12	0
bin	218954.14	0
bin	218954.16	0
bin	218954.18	0
bin	218954.2	0
bin	218954.22	0
bin	218954.24	0
bin	218954.26	0
bin	218954.28	0
bin	218954.3	0
bin	218954.32	0
bin	218954.34	0
bin	218954.36	0
bin	218954.38	0
bin	218954.4	0
bin	218954.42	0
bin	218954.44	0
bin	218954.46	0
bin	218954.48	0
bin	218954.5	0
bin	218954.52	0
bin	218954.54	0
bin	218954.56	0
bin	218954.58	0
bin	218954.6	0
par System.oss[2].ossCore[3] typename "\"lfs.Server\""
par System.oss[2].ossCore[3] mds_rate_r exponential(3e-09s)
attr unit s
par System.oss[2].ossCore[3] mds_rate_w exponential(6e-09s)
attr unit s
par System.oss[2].ossCore[3] oss_rate exponential(0.00012s)
attr unit s
par System.oss[2].ossCore[3] one_channel_rate exponential(0.00055s)
attr unit s
par System.oss[2].ossCore[3] ost_rate_l1k_w exponential(2.55e-05s)
attr unit s
par System.oss[2].ossCore[3] ost_rate_l4k_w exponential(2.72e-05s)
attr unit s
par System.oss[2].ossCore[3] slope_l4k_w 3.2e-06s
attr unit s
par System.oss[2].ossCore[3] ost_rate_l8k_w exponential(3.64e-05s)
attr unit s
par System.oss[2].ossCore[3] slope_l8k_w 1.15e-06s
attr unit s
par System.oss[2].ossCore[3] ost_rate_l16k_w exponential(4.1e-05s)
attr unit s
par System.oss[2].ossCore[3] slope_l16k_w 1.55e-06s
attr unit s
par System.oss[2].ossCore[3] ost_rate_l32k_w exponential(5.34e-05s)
attr unit s
par System.oss[2].ossCore[3] slope_l32k_w 1.88e-06s
attr unit s
par System.oss[2].ossCore[3] ost_rate_l256k_w exponential(8.35e-05s)
attr unit s
par System.oss[2].ossCore[3] slope_l256k_w 1.58e-06s
attr unit s
par System.oss[2].ossCore[3] ost_rate_g256k_w exponential(0.000437s)
attr unit s
par System.oss[2].ossCore[3] ost_rate_l64_r exponential(2e-06s)
attr unit s
par System.oss[2].ossCore[3] ost_rate_l1k_r exponential(3.05e-06s)
attr unit s
par System.oss[2].ossCore[3] ost_rate_l4k_r exponential(3.1e-06s)
attr unit s
par System.oss[2].ossCore[3] slope_l4k_r 3.2e-06s
attr unit s
par System.oss[2].ossCore[3] ost_rate_l8k_r exponential(1.2e-05s)
attr unit s
par System.oss[2].ossCore[3] slope_l8k_r 8.75e-07s
attr unit s
par System.oss[2].ossCore[3] ost_rate_l16k_r exponential(1.55e-05s)
attr unit s
par System.oss[2].ossCore[3] slope_l16k_r 1.44e-06s
attr unit s
par System.oss[2].ossCore[3] ost_rate_l32k_r exponential(2.7e-05s)
attr unit s
par System.oss[2].ossCore[3] slope_l32k_r 1.19e-06s
attr unit s
par System.oss[2].ossCore[3] ost_rate_l256k_r exponential(4.6e-05s)
attr unit s
par System.oss[2].ossCore[3] slope_l256k_r 1.12e-06s
attr unit s
par System.oss[2].ossCore[3] ost_rate_g256k_r exponential(0.000297s)
attr unit s
statistic System.oss[2].ossCore[3] waitInStation:histogram
field count 0
field mean -nan
field stddev -nan
field min -nan
field max -nan
field sum 0
field sqrsum 0
attr recordingmode histogram
attr title "Average waiting time in station"
bin	-inf	0
bin	0	0
bin	1	0
statistic System.oss[2].ossCore[3] averageIOPS:histogram
field count 1
field mean 225282.08795636
field stddev -nan
field min 225282.08795636
field max 225282.08795636
field sum 225282.08795636
field sqrsum 50752019153.975
attr recordingmode histogram
attr title "Average IO throughput"
bin	-inf	0
bin	225281.58	0
bin	225281.6	0
bin	225281.62	0
bin	225281.64	0
bin	225281.66	0
bin	225281.68	0
bin	225281.7	0
bin	225281.72	0
bin	225281.74	0
bin	225281.76	0
bin	225281.78	0
bin	225281.8	0
bin	225281.82	0
bin	225281.84	0
bin	225281.86	0
bin	225281.88	0
bin	225281.9	0
bin	225281.92	0
bin	225281.94	0
bin	225281.96	0
bin	225281.98	0
bin	225282	0
bin	225282.02	0
bin	225282.04	0
bin	225282.06	0
bin	225282.08	1
bin	225282.1	0
bin	225282.12	0
bin	225282.14	0
bin	225282.16	0
bin	225282.18	0
bin	225282.2	0
bin	225282.22	0
bin	225282.24	0
bin	225282.26	0
bin	225282.28	0
bin	225282.3	0
bin	225282.32	0
bin	225282.34	0
bin	225282.36	0
bin	225282.38	0
bin	225282.4	0
bin	225282.42	0
bin	225282.44	0
bin	225282.46	0
bin	225282.48	0
bin	225282.5	0
bin	225282.52	0
bin	225282.54	0
bin	225282.56	0
bin	225282.58	0
bin	225282.6	0
par System.oss[2].ossExit typename "\"lfs.Router\""
par System.oss[2] typename "\"lfs.OSS\""
par System.oss[2] core_count 4
par System.oss[3].ossEntry typename "\"lfs.Router\""
par System.oss[3].ossQueue[0] typename "\"lfs.Queue\""
statistic System.oss[3].ossQueue[0] queueWaiting:stats
field count 2306
field mean 0
field stddev 0
field min 0
field max 0
field sum 0
field sqrsum 0
attr recordingmode stats
attr title "Waiting time within queue"
statistic System.oss[3].ossQueue[0] queueLength:stats
field count 6918
field mean 0
field stddev 0
field min 0
field max 0
field sum 0
field sqrsum 0
attr recordingmode stats
attr title "Length of the queue"
par System.oss[3].ossQueue[1] typename "\"lfs.Queue\""
statistic System.oss[3].ossQueue[1] queueWaiting:stats
field count 2361
field mean 0
field stddev 0
field min 0
field max 0
field sum 0
field sqrsum 0
attr recordingmode stats
attr title "Waiting time within queue"
statistic System.oss[3].ossQueue[1] queueLength:stats
field count 7083
field mean 0
field stddev 0
field min 0
field max 0
field sum 0
field sqrsum 0
attr recordingmode stats
attr title "Length of the queue"
par System.oss[3].ossQueue[2] typename "\"lfs.Queue\""
statistic System.oss[3].ossQueue[2] queueWaiting:stats
field count 2339
field mean 0
field stddev 0
field min 0
field max 0
field sum 0
field sqrsum 0
attr recordingmode stats
attr title "Waiting time within queue"
statistic System.oss[3].ossQueue[2] queueLength:stats
field count 7017
field mean 0
field stddev 0
field min 0
field max 0
field sum 0
field sqrsum 0
attr recordingmode stats
attr title "Length of the queue"
par System.oss[3].ossQueue[3] typename "\"lfs.Queue\""
statistic System.oss[3].ossQueue[3] queueWaiting:stats
field count 2205
field mean 0
field stddev 0
field min 0
field max 0
field sum 0
field sqrsum 0
attr recordingmode stats
attr title "Waiting time within queue"
statistic System.oss[3].ossQueue[3] queueLength:stats
field count 6615
field mean 0
field stddev 0
field min 0
field max 0
field sum 0
field sqrsum 0
attr recordingmode stats
attr title "Length of the queue"
par System.oss[3].ossCore[0] typename "\"lfs.Server\""
par System.oss[3].ossCore[0] mds_rate_r exponential(3e-09s)
attr unit s
par System.oss[3].ossCore[0] mds_rate_w exponential(6e-09s)
attr unit s
par System.oss[3].ossCore[0] oss_rate exponential(0.00012s)
attr unit s
par System.oss[3].ossCore[0] one_channel_rate exponential(0.00055s)
attr unit s
par System.oss[3].ossCore[0] ost_rate_l1k_w exponential(2.55e-05s)
attr unit s
par System.oss[3].ossCore[0] ost_rate_l4k_w exponential(2.72e-05s)
attr unit s
par System.oss[3].ossCore[0] slope_l4k_w 3.2e-06s
attr unit s
par System.oss[3].ossCore[0] ost_rate_l8k_w exponential(3.64e-05s)
attr unit s
par System.oss[3].ossCore[0] slope_l8k_w 1.15e-06s
attr unit s
par System.oss[3].ossCore[0] ost_rate_l16k_w exponential(4.1e-05s)
attr unit s
par System.oss[3].ossCore[0] slope_l16k_w 1.55e-06s
attr unit s
par System.oss[3].ossCore[0] ost_rate_l32k_w exponential(5.34e-05s)
attr unit s
par System.oss[3].ossCore[0] slope_l32k_w 1.88e-06s
attr unit s
par System.oss[3].ossCore[0] ost_rate_l256k_w exponential(8.35e-05s)
attr unit s
par System.oss[3].ossCore[0] slope_l256k_w 1.58e-06s
attr unit s
par System.oss[3].ossCore[0] ost_rate_g256k_w exponential(0.000437s)
attr unit s
par System.oss[3].ossCore[0] ost_rate_l64_r exponential(2e-06s)
attr unit s
par System.oss[3].ossCore[0] ost_rate_l1k_r exponential(3.05e-06s)
attr unit s
par System.oss[3].ossCore[0] ost_rate_l4k_r exponential(3.1e-06s)
attr unit s
par System.oss[3].ossCore[0] slope_l4k_r 3.2e-06s
attr unit s
par System.oss[3].ossCore[0] ost_rate_l8k_r exponential(1.2e-05s)
attr unit s
par System.oss[3].ossCore[0] slope_l8k_r 8.75e-07s
attr unit s
par System.oss[3].ossCore[0] ost_rate_l16k_r exponential(1.55e-05s)
attr unit s
par System.oss[3].ossCore[0] slope_l16k_r 1.44e-06s
attr unit s
par System.oss[3].ossCore[0] ost_rate_l32k_r exponential(2.7e-05s)
attr unit s
par System.oss[3].ossCore[0] slope_l32k_r 1.19e-06s
attr unit s
par System.oss[3].ossCore[0] ost_rate_l256k_r exponential(4.6e-05s)
attr unit s
par System.oss[3].ossCore[0] slope_l256k_r 1.12e-06s
attr unit s
par System.oss[3].ossCore[0] ost_rate_g256k_r exponential(0.000297s)
attr unit s
statistic System.oss[3].ossCore[0] waitInStation:histogram
field count 0
field mean -nan
field stddev -nan
field min -nan
field max -nan
field sum 0
field sqrsum 0
attr recordingmode histogram
attr title "Average waiting time in station"
bin	-inf	0
bin	0	0
bin	1	0
statistic System.oss[3].ossCore[0] averageIOPS:histogram
field count 1
field mean 219941.91885977
field stddev -nan
field min 219941.91885977
field max 219941.91885977
field sum 219941.91885977
field sqrsum 48374447671.718
attr recordingmode histogram
attr title "Average IO throughput"
bin	-inf	0
bin	219941.4	0
bin	219941.42	0
bin	219941.44	0
bin	219941.46	0
bin	219941.48	0
bin	219941.5	0
bin	219941.52	0
bin	219941.54	0
bin	219941.56	0
bin	219941.58	0
bin	219941.6	0
bin	219941.62	0
bin	219941.64	0
bin	219941.66	0
bin	219941.68	0
bin	219941.7	0
bin	219941.72	0
bin	219941.74	0
bin	219941.76	0
bin	219941.78	0
bin	219941.8	0
bin	219941.82	0
bin	219941.84	0
bin	219941.86	0
bin	219941.88	0
bin	219941.9	1
bin	219941.92	0
bin	219941.94	0
bin	219941.96	0
bin	219941.98	0
bin	219942	0
bin	219942.02	0
bin	219942.04	0
bin	219942.06	0
bin	219942.08	0
bin	219942.1	0
bin	219942.12	0
bin	219942.14	0
bin	219942.16	0
bin	219942.18	0
bin	219942.2	0
bin	219942.22	0
bin	219942.24	0
bin	219942.26	0
bin	219942.28	0
bin	219942.3	0
bin	219942.32	0
bin	219942.34	0
bin	219942.36	0
bin	219942.38	0
bin	219942.4	0
bin	219942.42	0
par System.oss[3].ossCore[1] typename "\"lfs.Server\""
par System.oss[3].ossCore[1] mds_rate_r exponential(3e-09s)
attr unit s
par System.oss[3].ossCore[1] mds_rate_w exponential(6e-09s)
attr unit s
par System.oss[3].ossCore[1] oss_rate exponential(0.00012s)
attr unit s
par System.oss[3].ossCore[1] one_channel_rate exponential(0.00055s)
attr unit s
par System.oss[3].ossCore[1] ost_rate_l1k_w exponential(2.55e-05s)
attr unit s
par System.oss[3].ossCore[1] ost_rate_l4k_w exponential(2.72e-05s)
attr unit s
par System.oss[3].ossCore[1] slope_l4k_w 3.2e-06s
attr unit s
par System.oss[3].ossCore[1] ost_rate_l8k_w exponential(3.64e-05s)
attr unit s
par System.oss[3].ossCore[1] slope_l8k_w 1.15e-06s
attr unit s
par System.oss[3].ossCore[1] ost_rate_l16k_w exponential(4.1e-05s)
attr unit s
par System.oss[3].ossCore[1] slope_l16k_w 1.55e-06s
attr unit s
par System.oss[3].ossCore[1] ost_rate_l32k_w exponential(5.34e-05s)
attr unit s
par System.oss[3].ossCore[1] slope_l32k_w 1.88e-06s
attr unit s
par System.oss[3].ossCore[1] ost_rate_l256k_w exponential(8.35e-05s)
attr unit s
par System.oss[3].ossCore[1] slope_l256k_w 1.58e-06s
attr unit s
par System.oss[3].ossCore[1] ost_rate_g256k_w exponential(0.000437s)
attr unit s
par System.oss[3].ossCore[1] ost_rate_l64_r exponential(2e-06s)
attr unit s
par System.oss[3].ossCore[1] ost_rate_l1k_r exponential(3.05e-06s)
attr unit s
par System.oss[3].ossCore[1] ost_rate_l4k_r exponential(3.1e-06s)
attr unit s
par System.oss[3].ossCore[1] slope_l4k_r 3.2e-06s
attr unit s
par System.oss[3].ossCore[1] ost_rate_l8k_r exponential(1.2e-05s)
attr unit s
par System.oss[3].ossCore[1] slope_l8k_r 8.75e-07s
attr unit s
par System.oss[3].ossCore[1] ost_rate_l16k_r exponential(1.55e-05s)
attr unit s
par System.oss[3].ossCore[1] slope_l16k_r 1.44e-06s
attr unit s
par System.oss[3].ossCore[1] ost_rate_l32k_r exponential(2.7e-05s)
attr unit s
par System.oss[3].ossCore[1] slope_l32k_r 1.19e-06s
attr unit s
par System.oss[3].ossCore[1] ost_rate_l256k_r exponential(4.6e-05s)
attr unit s
par System.oss[3].ossCore[1] slope_l256k_r 1.12e-06s
attr unit s
par System.oss[3].ossCore[1] ost_rate_g256k_r exponential(0.000297s)
attr unit s
statistic System.oss[3].ossCore[1] waitInStation:histogram
field count 0
field mean -nan
field stddev -nan
field min -nan
field max -nan
field sum 0
field sqrsum 0
attr recordingmode histogram
attr title "Average waiting time in station"
bin	-inf	0
bin	0	0
bin	1	0
statistic System.oss[3].ossCore[1] averageIOPS:histogram
field count 1
field mean 224175.01318402
field stddev -nan
field min 224175.01318402
field max 224175.01318402
field sum 224175.01318402
field sqrsum 50254436536.056
attr recordingmode histogram
attr title "Average IO throughput"
bin	-inf	0
bin	224174.5	0
bin	224174.52	0
bin	224174.54	0
bin	224174.56	0
bin	224174.58	0
bin	224174.6	0
bin	224174.62	0
bin	224174.64	0
bin	224174.66	0
bin	224174.68	0
bin	224174.7	0
bin	224174.72	0
bin	224174.74	0
bin	224174.76	0
bin	224174.78	0
bin	224174.8	0
bin	224174.82	0
bin	224174.84	0
bin	224174.86	0
bin	224174.88	0
bin	224174.9	0
bin	224174.92	0
bin	224174.94	0
bin	224174.96	0
bin	224174.98	0
bin	224175	1
bin	224175.02	0
bin	224175.04	0
bin	224175.06	0
bin	224175.08	0
bin	224175.1	0
bin	224175.12	0
bin	224175.14	0
bin	224175.16	0
bin	224175.18	0
bin	224175.2	0
bin	224175.22	0
bin	224175.24	0
bin	224175.26	0
bin	224175.28	0
bin	224175.3	0
bin	224175.32	0
bin	224175.34	0
bin	224175.36	0
bin	224175.38	0
bin	224175.4	0
bin	224175.42	0
bin	224175.44	0
bin	224175.46	0
bin	224175.48	0
bin	224175.5	0
bin	224175.52	0
par System.oss[3].ossCore[2] typename "\"lfs.Server\""
par System.oss[3].ossCore[2] mds_rate_r exponential(3e-09s)
attr unit s
par System.oss[3].ossCore[2] mds_rate_w exponential(6e-09s)
attr unit s
par System.oss[3].ossCore[2] oss_rate exponential(0.00012s)
attr unit s
par System.oss[3].ossCore[2] one_channel_rate exponential(0.00055s)
attr unit s
par System.oss[3].ossCore[2] ost_rate_l1k_w exponential(2.55e-05s)
attr unit s
par System.oss[3].ossCore[2] ost_rate_l4k_w exponential(2.72e-05s)
attr unit s
par System.oss[3].ossCore[2] slope_l4k_w 3.2e-06s
attr unit s
par System.oss[3].ossCore[2] ost_rate_l8k_w exponential(3.64e-05s)
attr unit s
par System.oss[3].ossCore[2] slope_l8k_w 1.15e-06s
attr unit s
par System.oss[3].ossCore[2] ost_rate_l16k_w exponential(4.1e-05s)
attr unit s
par System.oss[3].ossCore[2] slope_l16k_w 1.55e-06s
attr unit s
par System.oss[3].ossCore[2] ost_rate_l32k_w exponential(5.34e-05s)
attr unit s
par System.oss[3].ossCore[2] slope_l32k_w 1.88e-06s
attr unit s
par System.oss[3].ossCore[2] ost_rate_l256k_w exponential(8.35e-05s)
attr unit s
par System.oss[3].ossCore[2] slope_l256k_w 1.58e-06s
attr unit s
par System.oss[3].ossCore[2] ost_rate_g256k_w exponential(0.000437s)
attr unit s
par System.oss[3].ossCore[2] ost_rate_l64_r exponential(2e-06s)
attr unit s
par System.oss[3].ossCore[2] ost_rate_l1k_r exponential(3.05e-06s)
attr unit s
par System.oss[3].ossCore[2] ost_rate_l4k_r exponential(3.1e-06s)
attr unit s
par System.oss[3].ossCore[2] slope_l4k_r 3.2e-06s
attr unit s
par System.oss[3].ossCore[2] ost_rate_l8k_r exponential(1.2e-05s)
attr unit s
par System.oss[3].ossCore[2] slope_l8k_r 8.75e-07s
attr unit s
par System.oss[3].ossCore[2] ost_rate_l16k_r exponential(1.55e-05s)
attr unit s
par System.oss[3].ossCore[2] slope_l16k_r 1.44e-06s
attr unit s
par System.oss[3].ossCore[2] ost_rate_l32k_r exponential(2.7e-05s)
attr unit s
par System.oss[3].ossCore[2] slope_l32k_r 1.19e-06s
attr unit s
par System.oss[3].ossCore[2] ost_rate_l256k_r exponential(4.6e-05s)
attr unit s
par System.oss[3].ossCore[2] slope_l256k_r 1.12e-06s
attr unit s
par System.oss[3].ossCore[2] ost_rate_g256k_r exponential(0.000297s)
attr unit s
statistic System.oss[3].ossCore[2] waitInStation:histogram
field count 0
field mean -nan
field stddev -nan
field min -nan
field max -nan
field sum 0
field sqrsum 0
attr recordingmode histogram
attr title "Average waiting time in station"
bin	-inf	0
bin	0	0
bin	1	0
statistic System.oss[3].ossCore[2] averageIOPS:histogram
field count 1
field mean 223896.7313764
field stddev -nan
field min 223896.7313764
field max 223896.7313764
field sum 223896.7313764
field sqrsum 50129746321.035
attr recordingmode histogram
attr title "Average IO throughput"
bin	-inf	0
bin	223896.22	0
bin	223896.24	0
bin	223896.26	0
bin	223896.28	0
bin	223896.3	0
bin	223896.32	0
bin	223896.34	0
bin	223896.36	0
bin	223896.38	0
bin	223896.4	0
bin	223896.42	0
bin	223896.44	0
bin	223896.46	0
bin	223896.48	0
bin	223896.5	0
bin	223896.52	0
bin	223896.54	0
bin	223896.56	0
bin	223896.58	0
bin	223896.6	0
bin	223896.62	0
bin	223896.64	0
bin	223896.66	0
bin	223896.68	0
bin	223896.7	0
bin	223896.72	1
bin	223896.74	0
bin	223896.76	0
bin	223896.78	0
bin	223896.8	0
bin	223896.82	0
bin	223896.84	0
bin	223896.86	0
bin	223896.88	0
bin	223896.9	0
bin	223896.92	0
bin	223896.94	0
bin	223896.96	0
bin	223896.98	0
bin	223897	0
bin	223897.02	0
bin	223897.04	0
bin	223897.06	0
bin	223897.08	0
bin	223897.1	0
bin	223897.12	0
bin	223897.14	0
bin	223897.16	0
bin	223897.18	0
bin	223897.2	0
bin	223897.22	0
bin	223897.24	0
par System.oss[3].ossCore[3] typename "\"lfs.Server\""
par System.oss[3].ossCore[3] mds_rate_r exponential(3e-09s)
attr unit s
par System.oss[3].ossCore[3] mds_rate_w exponential(6e-09s)
attr unit s
par System.oss[3].ossCore[3] oss_rate exponential(0.00012s)
attr unit s
par System.oss[3].ossCore[3] one_channel_rate exponential(0.00055s)
attr unit s
par System.oss[3].ossCore[3] ost_rate_l1k_w exponential(2.55e-05s)
attr unit s
par System.oss[3].ossCore[3] ost_rate_l4k_w exponential(2.72e-05s)
attr unit s
par System.oss[3].ossCore[3] slope_l4k_w 3.2e-06s
attr unit s
par System.oss[3].ossCore[3] ost_rate_l8k_w exponential(3.64e-05s)
attr unit s
par System.oss[3].ossCore[3] slope_l8k_w 1.15e-06s
attr unit s
par System.oss[3].ossCore[3] ost_rate_l16k_w exponential(4.1e-05s)
attr unit s
par System.oss[3].ossCore[3] slope_l16k_w 1.55e-06s
attr unit s
par System.oss[3].ossCore[3] ost_rate_l32k_w exponential(5.34e-05s)
attr unit s
par System.oss[3].ossCore[3] slope_l32k_w 1.88e-06s
attr unit s
par System.oss[3].ossCore[3] ost_rate_l256k_w exponential(8.35e-05s)
attr unit s
par System.oss[3].ossCore[3] slope_l256k_w 1.58e-06s
attr unit s
par System.oss[3].ossCore[3] ost_rate_g256k_w exponential(0.000437s)
attr unit s
par System.oss[3].ossCore[3] ost_rate_l64_r exponential(2e-06s)
attr unit s
par System.oss[3].ossCore[3] ost_rate_l1k_r exponential(3.05e-06s)
attr unit s
par System.oss[3].ossCore[3] ost_rate_l4k_r exponential(3.1e-06s)
attr unit s
par System.oss[3].ossCore[3] slope_l4k_r 3.2e-06s
attr unit s
par System.oss[3].ossCore[3] ost_rate_l8k_r exponential(1.2e-05s)
attr unit s
par System.oss[3].ossCore[3] slope_l8k_r 8.75e-07s
attr unit s
par System.oss[3].ossCore[3] ost_rate_l16k_r exponential(1.55e-05s)
attr unit s
par System.oss[3].ossCore[3] slope_l16k_r 1.44e-06s
attr unit s
par System.oss[3].ossCore[3] ost_rate_l32k_r exponential(2.7e-05s)
attr unit s
par System.oss[3].ossCore[3] slope_l32k_r 1.19e-06s
attr unit s
par System.oss[3].ossCore[3] ost_rate_l256k_r exponential(4.6e-05s)
attr unit s
par System.oss[3].ossCore[3] slope_l256k_r 1.12e-06s
attr unit s
par System.oss[3].ossCore[3] ost_rate_g256k_r exponential(0.000297s)
attr unit s
statistic System.oss[3].ossCore[3] waitInStation:histogram
field count 0
field mean -nan
field stddev -nan
field min -nan
field max -nan
field sum 0
field sqrsum 0
attr recordingmode histogram
attr title "Average waiting time in station"
bin	-inf	0
bin	0	0
bin	1	0
statistic System.oss[3].ossCore[3] averageIOPS:histogram
field count 1
field mean 211542.0318339
field stddev -nan
field min 211542.0318339
field max 211542.0318339
field sum 211542.0318339
field sqrsum 44750031232.413
attr recordingmode histogram
attr title "Average IO throughput"
bin	-inf	0
bin	211541.52	0
bin	211541.54	0
bin	211541.56	0
bin	211541.58	0
bin	211541.6	0
bin	211541.62	0
bin	211541.64	0
bin	211541.66	0
bin	211541.68	0
bin	211541.7	0
bin	211541.72	0
bin	211541.74	0
bin	211541.76	0
bin	211541.78	0
bin	211541.8	0
bin	211541.82	0
bin	211541.84	0
bin	211541.86	0
bin	211541.88	0
bin	211541.9	0
bin	211541.92	0
bin	211541.94	0
bin	211541.96	0
bin	211541.98	0
bin	211542	0
bin	211542.02	1
bin	211542.04	0
bin	211542.06	0
bin	211542.08	0
bin	211542.1	0
bin	211542.12	0
bin	211542.14	0
bin	211542.16	0
bin	211542.18	0
bin	211542.2	0
bin	211542.22	0
bin	211542.24	0
bin	211542.26	0
bin	211542.28	0
bin	211542.3	0
bin	211542.32	0
bin	211542.34	0
bin	211542.36	0
bin	211542.38	0
bin	211542.4	0
bin	211542.42	0
bin	211542.44	0
bin	211542.46	0
bin	211542.48	0
bin	211542.5	0
bin	211542.52	0
bin	211542.54	0
par System.oss[3].ossExit typename "\"lfs.Router\""
par System.oss[3] typename "\"lfs.OSS\""
par System.oss[3] core_count 4
par System.aggregate typename "\"lfs.Router\""
par System.ost[0].ostEntry typename "\"lfs.Router\""
par System.ost[0].ostQueue[0] typename "\"lfs.Queue\""
statistic System.ost[0].ostQueue[0] queueWaiting:stats
field count 921
field mean 2.727552660152e-09
field stddev 4.6145894347e-08
field min 0
field max 9.60828e-07
field sum 2.512076e-06
field sqrsum 1.965939899454e-12
attr recordingmode stats
attr title "Waiting time within queue"
statistic System.ost[0].ostQueue[0] queueLength:stats
field count 2775
field mean 0.0028828828828829
field stddev 0.053624696962747
field min 0
field max 1
field sum 8
field sqrsum 8
attr recordingmode stats
attr title "Length of the queue"
par System.ost[0].ostCore[0] typename "\"lfs.Server\""
par System.ost[0].ostCore[0] mds_rate_r exponential(3e-09s)
attr unit s
par System.ost[0].ostCore[0] mds_rate_w exponential(6e-09s)
attr unit s
par System.ost[0].ostCore[0] oss_rate exponential(0.00012s)
attr unit s
par System.ost[0].ostCore[0] one_channel_rate exponential(0.00055s)
attr unit s
par System.ost[0].ostCore[0] ost_rate_l1k_w exponential(2.55e-05s)
attr unit s
par System.ost[0].ostCore[0] ost_rate_l4k_w exponential(2.72e-05s)
attr unit s
par System.ost[0].ostCore[0] slope_l4k_w 3.2e-06s
attr unit s
par System.ost[0].ostCore[0] ost_rate_l8k_w exponential(3.64e-05s)
attr unit s
par System.ost[0].ostCore[0] slope_l8k_w 1.15e-06s
attr unit s
par System.ost[0].ostCore[0] ost_rate_l16k_w exponential(4.1e-05s)
attr unit s
par System.ost[0].ostCore[0] slope_l16k_w 1.55e-06s
attr unit s
par System.ost[0].ostCore[0] ost_rate_l32k_w exponential(5.34e-05s)
attr unit s
par System.ost[0].ostCore[0] slope_l32k_w 1.88e-06s
attr unit s
par System.ost[0].ostCore[0] ost_rate_l256k_w exponential(8.35e-05s)
attr unit s
par System.ost[0].ostCore[0] slope_l256k_w 1.58e-06s
attr unit s
par System.ost[0].ostCore[0] ost_rate_g256k_w exponential(0.000437s)
attr unit s
par System.ost[0].ostCore[0] ost_rate_l64_r exponential(2e-06s)
attr unit s
par System.ost[0].ostCore[0] ost_rate_l1k_r exponential(3.05e-06s)
attr unit s
par System.ost[0].ostCore[0] ost_rate_l4k_r exponential(3.1e-06s)
attr unit s
par System.ost[0].ostCore[0] slope_l4k_r 3.2e-06s
attr unit s
par System.ost[0].ostCore[0] ost_rate_l8k_r exponential(1.2e-05s)
attr unit s
par System.ost[0].ostCore[0] slope_l8k_r 8.75e-07s
attr unit s
par System.ost[0].ostCore[0] ost_rate_l16k_r exponential(1.55e-05s)
attr unit s
par System.ost[0].ostCore[0] slope_l16k_r 1.44e-06s
attr unit s
par System.ost[0].ostCore[0] ost_rate_l32k_r exponential(2.7e-05s)
attr unit s
par System.ost[0].ostCore[0] slope_l32k_r 1.19e-06s
attr unit s
par System.ost[0].ostCore[0] ost_rate_l256k_r exponential(4.6e-05s)
attr unit s
par System.ost[0].ostCore[0] slope_l256k_r 1.12e-06s
attr unit s
par System.ost[0].ostCore[0] ost_rate_g256k_r exponential(0.000297s)
attr unit s
statistic System.ost[0].ostCore[0] waitInStation:histogram
field count 0
field mean -nan
field stddev -nan
field min -nan
field max -nan
field sum 0
field sqrsum 0
attr recordingmode histogram
attr title "Average waiting time in station"
bin	-inf	0
bin	0	0
bin	1	0
statistic System.ost[0].ostCore[0] averageIOPS:histogram
field count 1
field mean 87945.237969002
field stddev -nan
field min 87945.237969002
field max 87945.237969002
field sum 87945.237969002
field sqrsum 7734364881.4244
attr recordingmode histogram
attr title "Average IO throughput"
bin	-inf	0
bin	87944.72	0
bin	87944.74	0
bin	87944.76	0
bin	87944.78	0
bin	87944.8	0
bin	87944.82	0
bin	87944.84	0
bin	87944.86	0
bin	87944.88	0
bin	87944.9	0
bin	87944.92	0
bin	87944.94	0
bin	87944.96	0
bin	87944.98	0
bin	87945	0
bin	87945.02	0
bin	87945.04	0
bin	87945.06	0
bin	87945.08	0
bin	87945.1	0
bin	87945.12	0
bin	87945.14	0
bin	87945.16	0
bin	87945.18	0
bin	87945.2	0
bin	87945.22	1
bin	87945.24	0
bin	87945.26	0
bin	87945.28	0
bin	87945.3	0
bin	87945.32	0
bin	87945.34	0
bin	87945.36	0
bin	87945.38	0
bin	87945.4	0
bin	87945.42	0
bin	87945.44	0
bin	87945.46	0
bin	87945.48	0
bin	87945.5	0
bin	87945.52	0
bin	87945.54	0
bin	87945.56	0
bin	87945.58	0
bin	87945.6	0
bin	87945.62	0
bin	87945.64	0
bin	87945.66	0
bin	87945.68	0
bin	87945.7	0
bin	87945.72	0
bin	87945.74	0
par System.ost[0].ostExit typename "\"lfs.Router\""
par System.ost[0] typename "\"lfs.OST\""
par System.ost[0] count 1
par System.ost[1].ostEntry typename "\"lfs.Router\""
par System.ost[1].ostQueue[0] typename "\"lfs.Queue\""
statistic System.ost[1].ostQueue[0] queueWaiting:stats
field count 922
field mean 1.1137447939262e-08
field stddev 1.739353674305e-07
field min 0
field max 3.288954e-06
field sum 1.0268727e-05
field sqrsum 2.7977852004137e-11
attr recordingmode stats
attr title "Waiting time within queue"
statistic System.ost[1].ostQueue[0] queueLength:stats
field count 2778
field mean 0.0028797696184305
field stddev 0.053595807358949
field min 0
field max 1
field sum 8
field sqrsum 8
attr recordingmode stats
attr title "Length of the queue"
par System.ost[1].ostCore[0] typename "\"lfs.Server\""
par System.ost[1].ostCore[0] mds_rate_r exponential(3e-09s)
attr unit s
par System.ost[1].ostCore[0] mds_rate_w exponential(6e-09s)
attr unit s
par System.ost[1].ostCore[0] oss_rate exponential(0.00012s)
attr unit s
par System.ost[1].ostCore[0] one_channel_rate exponential(0.00055s)
attr unit s
par System.ost[1].ostCore[0] ost_rate_l1k_w exponential(2.55e-05s)
attr unit s
par System.ost[1].ostCore[0] ost_rate_l4k_w exponential(2.72e-05s)
attr unit s
par System.ost[1].ostCore[0] slope_l4k_w 3.2e-06s
attr unit s
par System.ost[1].ostCore[0] ost_rate_l8k_w exponential(3.64e-05s)
attr unit s
par System.ost[1].ostCore[0] slope_l8k_w 1.15e-06s
attr unit s
par System.ost[1].ostCore[0] ost_rate_l16k_w exponential(4.1e-05s)
attr unit s
par System.ost[1].ostCore[0] slope_l16k_w 1.55e-06s
attr unit s
par System.ost[1].ostCore[0] ost_rate_l32k_w exponential(5.34e-05s)
attr unit s
par System.ost[1].ostCore[0] slope_l32k_w 1.88e-06s
attr unit s
par System.ost[1].ostCore[0] ost_rate_l256k_w exponential(8.35e-05s)
attr unit s
par System.ost[1].ostCore[0] slope_l256k_w 1.58e-06s
attr unit s
par System.ost[1].ostCore[0] ost_rate_g256k_w exponential(0.000437s)
attr unit s
par System.ost[1].ostCore[0] ost_rate_l64_r exponential(2e-06s)
attr unit s
par System.ost[1].ostCore[0] ost_rate_l1k_r exponential(3.05e-06s)
attr unit s
par System.ost[1].ostCore[0] ost_rate_l4k_r exponential(3.1e-06s)
attr unit s
par System.ost[1].ostCore[0] slope_l4k_r 3.2e-06s
attr unit s
par System.ost[1].ostCore[0] ost_rate_l8k_r exponential(1.2e-05s)
attr unit s
par System.ost[1].ostCore[0] slope_l8k_r 8.75e-07s
attr unit s
par System.ost[1].ostCore[0] ost_rate_l16k_r exponential(1.55e-05s)
attr unit s
par System.ost[1].ostCore[0] slope_l16k_r 1.44e-06s
attr unit s
par System.ost[1].ostCore[0] ost_rate_l32k_r exponential(2.7e-05s)
attr unit s
par System.ost[1].ostCore[0] slope_l32k_r 1.19e-06s
attr unit s
par System.ost[1].ostCore[0] ost_rate_l256k_r exponential(4.6e-05s)
attr unit s
par System.ost[1].ostCore[0] slope_l256k_r 1.12e-06s
attr unit s
par System.ost[1].ostCore[0] ost_rate_g256k_r exponential(0.000297s)
attr unit s
statistic System.ost[1].ostCore[0] waitInStation:histogram
field count 0
field mean -nan
field stddev -nan
field min -nan
field max -nan
field sum 0
field sqrsum 0
attr recordingmode histogram
attr title "Average waiting time in station"
bin	-inf	0
bin	0	0
bin	1	0
statistic System.ost[1].ostCore[0] averageIOPS:histogram
field count 1
field mean 88040.514528346
field stddev -nan
field min 88040.514528346
field max 88040.514528346
field sum 88040.514528346
field sqrsum 7751132198.4158
attr recordingmode histogram
attr title "Average IO throughput"
bin	-inf	0
bin	88040	0
bin	88040.02	0
bin	88040.04	0
bin	88040.06	0
bin	88040.08	0
bin	88040.1	0
bin	88040.12	0
bin	88040.14	0
bin	88040.16	0
bin	88040.18	0
bin	88040.2	0
bin	88040.22	0
bin	88040.24	0
bin	88040.26	0
bin	88040.28	0
bin	88040.3	0
bin	88040.32	0
bin	88040.34	0
bin	88040.36	0
bin	88040.38	0
bin	88040.4	0
bin	88040.42	0
bin	88040.44	0
bin	88040.46	0
bin	88040.48	0
bin	88040.5	1
bin	88040.52	0
bin	88040.54	0
bin	88040.56	0
bin	88040.58	0
bin	88040.6	0
[...]
bin	154093.9	1
bin	154093.92	0
bin	154093.94	0
bin	154093.96	0
bin	154093.98	0
bin	154094	0
bin	154094.02	0
bin	154094.04	0
bin	154094.06	0
bin	154094.08	0
bin	154094.1	0
bin	154094.12	0
bin	154094.14	0
bin	154094.16	0
bin	154094.18	0
bin	154094.2	0
bin	154094.22	0
bin	154094.24	0
bin	154094.26	0
bin	154094.28	0
bin	154094.3	0
bin	154094.32	0
bin	154094.34	0
bin	154094.36	0
bin	154094.38	0
bin	154094.4	0
bin	154094.42	0
par System.net_channels[3].netCore[7] typename "\"lfs.Server\""
par System.net_channels[3].netCore[7] mds_rate_r exponential(3e-09s)
attr unit s
par System.net_channels[3].netCore[7] mds_rate_w exponential(6e-09s)
attr unit s
par System.net_channels[3].netCore[7] oss_rate exponential(0.00012s)
attr unit s
par System.net_channels[3].netCore[7] one_channel_rate exponential(0.00055s)
attr unit s
par System.net_channels[3].netCore[7] ost_rate_l1k_w exponential(2.55e-05s)
attr unit s
par System.net_channels[3].netCore[7] ost_rate_l4k_w exponential(2.72e-05s)
attr unit s
par System.net_channels[3].netCore[7] slope_l4k_w 3.2e-06s
attr unit s
par System.net_channels[3].netCore[7] ost_rate_l8k_w exponential(3.64e-05s)
attr unit s
par System.net_channels[3].netCore[7] slope_l8k_w 1.15e-06s
attr unit s
par System.net_channels[3].netCore[7] ost_rate_l16k_w exponential(4.1e-05s)
attr unit s
par System.net_channels[3].netCore[7] slope_l16k_w 1.55e-06s
attr unit s
par System.net_channels[3].netCore[7] ost_rate_l32k_w exponential(5.34e-05s)
attr unit s
par System.net_channels[3].netCore[7] slope_l32k_w 1.88e-06s
attr unit s
par System.net_channels[3].netCore[7] ost_rate_l256k_w exponential(8.35e-05s)
attr unit s
par System.net_channels[3].netCore[7] slope_l256k_w 1.58e-06s
attr unit s
par System.net_channels[3].netCore[7] ost_rate_g256k_w exponential(0.000437s)
attr unit s
par System.net_channels[3].netCore[7] ost_rate_l64_r exponential(2e-06s)
attr unit s
par System.net_channels[3].netCore[7] ost_rate_l1k_r exponential(3.05e-06s)
attr unit s
par System.net_channels[3].netCore[7] ost_rate_l4k_r exponential(3.1e-06s)
attr unit s
par System.net_channels[3].netCore[7] slope_l4k_r 3.2e-06s
attr unit s
par System.net_channels[3].netCore[7] ost_rate_l8k_r exponential(1.2e-05s)
attr unit s
par System.net_channels[3].netCore[7] slope_l8k_r 8.75e-07s
attr unit s
par System.net_channels[3].netCore[7] ost_rate_l16k_r exponential(1.55e-05s)
attr unit s
par System.net_channels[3].netCore[7] slope_l16k_r 1.44e-06s
attr unit s
par System.net_channels[3].netCore[7] ost_rate_l32k_r exponential(2.7e-05s)
attr unit s
par System.net_channels[3].netCore[7] slope_l32k_r 1.19e-06s
attr unit s
par System.net_channels[3].netCore[7] ost_rate_l256k_r exponential(4.6e-05s)
attr unit s
par System.net_channels[3].netCore[7] slope_l256k_r 1.12e-06s
attr unit s
par System.net_channels[3].netCore[7] ost_rate_g256k_r exponential(0.000297s)
attr unit s
statistic System.net_channels[3].netCore[7] waitInStation:histogram
field count 0
field mean -nan
field stddev -nan
field min -nan
field max -nan
field sum 0
field sqrsum 0
attr recordingmode histogram
attr title "Average waiting time in station"
bin	-inf	0
bin	0	0
bin	1	0
statistic System.net_channels[3].netCore[7] averageIOPS:histogram
field count 1
field mean 158692.36053389
field stddev -nan
field min 158692.36053389
field max 158692.36053389
field sum 158692.36053389
field sqrsum 25183265291.82
attr recordingmode histogram
attr title "Average IO throughput"
bin	-inf	0
bin	158691.86	0
bin	158691.88	0
bin	158691.9	0
bin	158691.92	0
bin	158691.94	0
bin	158691.96	0
bin	158691.98	0
bin	158692	0
bin	158692.02	0
bin	158692.04	0
bin	158692.06	0
bin	158692.08	0
bin	158692.1	0
bin	158692.12	0
bin	158692.14	0
bin	158692.16	0
bin	158692.18	0
bin	158692.2	0
bin	158692.22	0
bin	158692.24	0
bin	158692.26	0
bin	158692.28	0
bin	158692.3	0
bin	158692.32	0
bin	158692.34	0
bin	158692.36	1
bin	158692.38	0
bin	158692.4	0
bin	158692.42	0
bin	158692.44	0
bin	158692.46	0
bin	158692.48	0
bin	158692.5	0
bin	158692.52	0
bin	158692.54	0
bin	158692.56	0
bin	158692.58	0
bin	158692.6	0
bin	158692.62	0
bin	158692.64	0
bin	158692.66	0
bin	158692.68	0
bin	158692.7	0
bin	158692.72	0
bin	158692.74	0
bin	158692.76	0
bin	158692.78	0
bin	158692.8	0
bin	158692.82	0
bin	158692.84	0
bin	158692.86	0
bin	158692.88	0
par System.net_channels[3].netCore[8] typename "\"lfs.Server\""
par System.net_channels[3].netCore[8] mds_rate_r exponential(3e-09s)
attr unit s
par System.net_channels[3].netCore[8] mds_rate_w exponential(6e-09s)
attr unit s
par System.net_channels[3].netCore[8] oss_rate exponential(0.00012s)
attr unit s
par System.net_channels[3].netCore[8] one_channel_rate exponential(0.00055s)
attr unit s
par System.net_channels[3].netCore[8] ost_rate_l1k_w exponential(2.55e-05s)
attr unit s
par System.net_channels[3].netCore[8] ost_rate_l4k_w exponential(2.72e-05s)
attr unit s
par System.net_channels[3].netCore[8] slope_l4k_w 3.2e-06s
attr unit s
par System.net_channels[3].netCore[8] ost_rate_l8k_w exponential(3.64e-05s)
attr unit s
par System.net_channels[3].netCore[8] slope_l8k_w 1.15e-06s
attr unit s
par System.net_channels[3].netCore[8] ost_rate_l16k_w exponential(4.1e-05s)
attr unit s
par System.net_channels[3].netCore[8] slope_l16k_w 1.55e-06s
attr unit s
par System.net_channels[3].netCore[8] ost_rate_l32k_w exponential(5.34e-05s)
attr unit s
par System.net_channels[3].netCore[8] slope_l32k_w 1.88e-06s
attr unit s
par System.net_channels[3].netCore[8] ost_rate_l256k_w exponential(8.35e-05s)
attr unit s
par System.net_channels[3].netCore[8] slope_l256k_w 1.58e-06s
attr unit s
par System.net_channels[3].netCore[8] ost_rate_g256k_w exponential(0.000437s)
attr unit s
par System.net_channels[3].netCore[8] ost_rate_l64_r exponential(2e-06s)
attr unit s
par System.net_channels[3].netCore[8] ost_rate_l1k_r exponential(3.05e-06s)
attr unit s
par System.net_channels[3].netCore[8] ost_rate_l4k_r exponential(3.1e-06s)
attr unit s
par System.net_channels[3].netCore[8] slope_l4k_r 3.2e-06s
attr unit s
par System.net_channels[3].netCore[8] ost_rate_l8k_r exponential(1.2e-05s)
attr unit s
par System.net_channels[3].netCore[8] slope_l8k_r 8.75e-07s
attr unit s
par System.net_channels[3].netCore[8] ost_rate_l16k_r exponential(1.55e-05s)
attr unit s
par System.net_channels[3].netCore[8] slope_l16k_r 1.44e-06s
attr unit s
par System.net_channels[3].netCore[8] ost_rate_l32k_r exponential(2.7e-05s)
attr unit s
par System.net_channels[3].netCore[8] slope_l32k_r 1.19e-06s
attr unit s
par System.net_channels[3].netCore[8] ost_rate_l256k_r exponential(4.6e-05s)
attr unit s
par System.net_channels[3].netCore[8] slope_l256k_r 1.12e-06s
attr unit s
par System.net_channels[3].netCore[8] ost_rate_g256k_r exponential(0.000297s)
attr unit s
statistic System.net_channels[3].netCore[8] waitInStation:histogram
field count 0
field mean -nan
field stddev -nan
field min -nan
field max -nan
field sum 0
field sqrsum 0
attr recordingmode histogram
attr title "Average waiting time in station"
bin	-inf	0
bin	0	0
bin	1	0
statistic System.net_channels[3].netCore[8] averageIOPS:histogram
field count 1
field mean 152469.90523632
field stddev -nan
field min 152469.90523632
field max 152469.90523632
field sum 152469.90523632
field sqrsum 23247072002.773
attr recordingmode histogram
attr title "Average IO throughput"
bin	-inf	0
bin	152469.4	0
bin	152469.42	0
bin	152469.44	0
bin	152469.46	0
bin	152469.48	0
bin	152469.5	0
bin	152469.52	0
bin	152469.54	0
bin	152469.56	0
bin	152469.58	0
bin	152469.6	0
bin	152469.62	0
bin	152469.64	0
bin	152469.66	0
bin	152469.68	0
bin	152469.7	0
bin	152469.72	0
bin	152469.74	0
bin	152469.76	0
bin	152469.78	0
bin	152469.8	0
bin	152469.82	0
bin	152469.84	0
bin	152469.86	0
bin	152469.88	0
bin	152469.9	1
bin	152469.92	0
bin	152469.94	0
bin	152469.96	0
bin	152469.98	0
bin	152470	0
bin	152470.02	0
bin	152470.04	0
bin	152470.06	0
bin	152470.08	0
bin	152470.1	0
bin	152470.12	0
bin	152470.14	0
bin	152470.16	0
bin	152470.18	0
bin	152470.2	0
bin	152470.22	0
bin	152470.24	0
bin	152470.26	0
bin	152470.28	0
bin	152470.3	0
bin	152470.32	0
bin	152470.34	0
bin	152470.36	0
bin	152470.38	0
bin	152470.4	0
bin	152470.42	0
par System.net_channels[3].netCore[9] typename "\"lfs.Server\""
par System.net_channels[3].netCore[9] mds_rate_r exponential(3e-09s)
attr unit s
par System.net_channels[3].netCore[9] mds_rate_w exponential(6e-09s)
attr unit s
par System.net_channels[3].netCore[9] oss_rate exponential(0.00012s)
attr unit s
par System.net_channels[3].netCore[9] one_channel_rate exponential(0.00055s)
attr unit s
par System.net_channels[3].netCore[9] ost_rate_l1k_w exponential(2.55e-05s)
attr unit s
par System.net_channels[3].netCore[9] ost_rate_l4k_w exponential(2.72e-05s)
attr unit s
par System.net_channels[3].netCore[9] slope_l4k_w 3.2e-06s
attr unit s
par System.net_channels[3].netCore[9] ost_rate_l8k_w exponential(3.64e-05s)
attr unit s
par System.net_channels[3].netCore[9] slope_l8k_w 1.15e-06s
attr unit s
par System.net_channels[3].netCore[9] ost_rate_l16k_w exponential(4.1e-05s)
attr unit s
par System.net_channels[3].netCore[9] slope_l16k_w 1.55e-06s
attr unit s
par System.net_channels[3].netCore[9] ost_rate_l32k_w exponential(5.34e-05s)
attr unit s
par System.net_channels[3].netCore[9] slope_l32k_w 1.88e-06s
attr unit s
par System.net_channels[3].netCore[9] ost_rate_l256k_w exponential(8.35e-05s)
attr unit s
par System.net_channels[3].netCore[9] slope_l256k_w 1.58e-06s
attr unit s
par System.net_channels[3].netCore[9] ost_rate_g256k_w exponential(0.000437s)
attr unit s
par System.net_channels[3].netCore[9] ost_rate_l64_r exponential(2e-06s)
attr unit s
par System.net_channels[3].netCore[9] ost_rate_l1k_r exponential(3.05e-06s)
attr unit s
par System.net_channels[3].netCore[9] ost_rate_l4k_r exponential(3.1e-06s)
attr unit s
par System.net_channels[3].netCore[9] slope_l4k_r 3.2e-06s
attr unit s
par System.net_channels[3].netCore[9] ost_rate_l8k_r exponential(1.2e-05s)
attr unit s
par System.net_channels[3].netCore[9] slope_l8k_r 8.75e-07s
attr unit s
par System.net_channels[3].netCore[9] ost_rate_l16k_r exponential(1.55e-05s)
attr unit s
par System.net_channels[3].netCore[9] slope_l16k_r 1.44e-06s
attr unit s
par System.net_channels[3].netCore[9] ost_rate_l32k_r exponential(2.7e-05s)
attr unit s
par System.net_channels[3].netCore[9] slope_l32k_r 1.19e-06s
attr unit s
par System.net_channels[3].netCore[9] ost_rate_l256k_r exponential(4.6e-05s)
attr unit s
par System.net_channels[3].netCore[9] slope_l256k_r 1.12e-06s
attr unit s
par System.net_channels[3].netCore[9] ost_rate_g256k_r exponential(0.000297s)
attr unit s
statistic System.net_channels[3].netCore[9] waitInStation:histogram
field count 0
field mean -nan
field stddev -nan
field min -nan
field max -nan
field sum 0
field sqrsum 0
attr recordingmode histogram
attr title "Average waiting time in station"
bin	-inf	0
bin	0	0
bin	1	0
statistic System.net_channels[3].netCore[9] averageIOPS:histogram
field count 1
field mean 155579.77966899
field stddev -nan
field min 155579.77966899
field max 155579.77966899
field sum 155579.77966899
field sqrsum 24205067841.851
attr recordingmode histogram
attr title "Average IO throughput"
bin	-inf	0
bin	155579.26	0
bin	155579.28	0
bin	155579.3	0
bin	155579.32	0
bin	155579.34	0
bin	155579.36	0
bin	155579.38	0
bin	155579.4	0
bin	155579.42	0
bin	155579.44	0
bin	155579.46	0
bin	155579.48	0
bin	155579.5	0
bin	155579.52	0
bin	155579.54	0
bin	155579.56	0
bin	155579.58	0
bin	155579.6	0
bin	155579.62	0
bin	155579.64	0
bin	155579.66	0
bin	155579.68	0
bin	155579.7	0
bin	155579.72	0
bin	155579.74	0
bin	155579.76	1
bin	155579.78	0
bin	155579.8	0
bin	155579.82	0
bin	155579.84	0
bin	155579.86	0
bin	155579.88	0
bin	155579.9	0
bin	155579.92	0
bin	155579.94	0
bin	155579.96	0
bin	155579.98	0
bin	155580	0
bin	155580.02	0
bin	155580.04	0
bin	155580.06	0
bin	155580.08	0
bin	155580.1	0
bin	155580.12	0
bin	155580.14	0
bin	155580.16	0
bin	155580.18	0
bin	155580.2	0
bin	155580.22	0
bin	155580.24	0
bin	155580.26	0
bin	155580.28	0
par System.net_channels[3].netCore[10] typename "\"lfs.Server\""
par System.net_channels[3].netCore[10] mds_rate_r exponential(3e-09s)
attr unit s
par System.net_channels[3].netCore[10] mds_rate_w exponential(6e-09s)
attr unit s
par System.net_channels[3].netCore[10] oss_rate exponential(0.00012s)
attr unit s
par System.net_channels[3].netCore[10] one_channel_rate exponential(0.00055s)
attr unit s
par System.net_channels[3].netCore[10] ost_rate_l1k_w exponential(2.55e-05s)
attr unit s
par System.net_channels[3].netCore[10] ost_rate_l4k_w exponential(2.72e-05s)
attr unit s
par System.net_channels[3].netCore[10] slope_l4k_w 3.2e-06s
attr unit s
par System.net_channels[3].netCore[10] ost_rate_l8k_w exponential(3.64e-05s)
attr unit s
par System.net_channels[3].netCore[10] slope_l8k_w 1.15e-06s
attr unit s
par System.net_channels[3].netCore[10] ost_rate_l16k_w exponential(4.1e-05s)
attr unit s
par System.net_channels[3].netCore[10] slope_l16k_w 1.55e-06s
attr unit s
par System.net_channels[3].netCore[10] ost_rate_l32k_w exponential(5.34e-05s)
attr unit s
par System.net_channels[3].netCore[10] slope_l32k_w 1.88e-06s
attr unit s
par System.net_channels[3].netCore[10] ost_rate_l256k_w exponential(8.35e-05s)
attr unit s
par System.net_channels[3].netCore[10] slope_l256k_w 1.58e-06s
attr unit s
par System.net_channels[3].netCore[10] ost_rate_g256k_w exponential(0.000437s)
attr unit s
par System.net_channels[3].netCore[10] ost_rate_l64_r exponential(2e-06s)
attr unit s
par System.net_channels[3].netCore[10] ost_rate_l1k_r exponential(3.05e-06s)
attr unit s
par System.net_channels[3].netCore[10] ost_rate_l4k_r exponential(3.1e-06s)
attr unit s
par System.net_channels[3].netCore[10] slope_l4k_r 3.2e-06s
attr unit s
par System.net_channels[3].netCore[10] ost_rate_l8k_r exponential(1.2e-05s)
attr unit s
par System.net_channels[3].netCore[10] slope_l8k_r 8.75e-07s
attr unit s
par System.net_channels[3].netCore[10] ost_rate_l16k_r exponential(1.55e-05s)
attr unit s
par System.net_channels[3].netCore[10] slope_l16k_r 1.44e-06s
attr unit s
par System.net_channels[3].netCore[10] ost_rate_l32k_r exponential(2.7e-05s)
attr unit s
par System.net_channels[3].netCore[10] slope_l32k_r 1.19e-06s
attr unit s
par System.net_channels[3].netCore[10] ost_rate_l256k_r exponential(4.6e-05s)
attr unit s
par System.net_channels[3].netCore[10] slope_l256k_r 1.12e-06s
attr unit s
par System.net_channels[3].netCore[10] ost_rate_g256k_r exponential(0.000297s)
attr unit s
statistic System.net_channels[3].netCore[10] waitInStation:histogram
field count 0
field mean -nan
field stddev -nan
field min -nan
field max -nan
field sum 0
field sqrsum 0
attr recordingmode histogram
attr title "Average waiting time in station"
bin	-inf	0
bin	0	0
bin	1	0
statistic System.net_channels[3].netCore[10] averageIOPS:histogram
field count 1
field mean 153282.91490237
field stddev -nan
field min 153282.91490237
field max 153282.91490237
field sum 153282.91490237
field sqrsum 23495652000.966
attr recordingmode histogram
attr title "Average IO throughput"
bin	-inf	0
bin	153282.4	0
bin	153282.42	0
bin	153282.44	0
bin	153282.46	0
bin	153282.48	0
bin	153282.5	0
bin	153282.52	0
bin	153282.54	0
bin	153282.56	0
bin	153282.58	0
bin	153282.6	0
bin	153282.62	0
bin	153282.64	0
bin	153282.66	0
bin	153282.68	0
bin	153282.7	0
bin	153282.72	0
bin	153282.74	0
bin	153282.76	0
bin	153282.78	0
bin	153282.8	0
bin	153282.82	0
bin	153282.84	0
bin	153282.86	0
bin	153282.88	0
bin	153282.9	1
bin	153282.92	0
bin	153282.94	0
bin	153282.96	0
bin	153282.98	0
bin	153283	0
bin	153283.02	0
bin	153283.04	0
bin	153283.06	0
bin	153283.08	0
bin	153283.1	0
bin	153283.12	0
bin	153283.14	0
bin	153283.16	0
bin	153283.18	0
bin	153283.2	0
bin	153283.22	0
bin	153283.24	0
bin	153283.26	0
bin	153283.28	0
bin	153283.3	0
bin	153283.32	0
bin	153283.34	0
bin	153283.36	0
bin	153283.38	0
bin	153283.4	0
bin	153283.42	0
par System.net_channels[3].netCore[11] typename "\"lfs.Server\""
par System.net_channels[3].netCore[11] mds_rate_r exponential(3e-09s)
attr unit s
par System.net_channels[3].netCore[11] mds_rate_w exponential(6e-09s)
attr unit s
par System.net_channels[3].netCore[11] oss_rate exponential(0.00012s)
attr unit s
par System.net_channels[3].netCore[11] one_channel_rate exponential(0.00055s)
attr unit s
par System.net_channels[3].netCore[11] ost_rate_l1k_w exponential(2.55e-05s)
attr unit s
par System.net_channels[3].netCore[11] ost_rate_l4k_w exponential(2.72e-05s)
attr unit s
par System.net_channels[3].netCore[11] slope_l4k_w 3.2e-06s
attr unit s
par System.net_channels[3].netCore[11] ost_rate_l8k_w exponential(3.64e-05s)
attr unit s
par System.net_channels[3].netCore[11] slope_l8k_w 1.15e-06s
attr unit s
par System.net_channels[3].netCore[11] ost_rate_l16k_w exponential(4.1e-05s)
attr unit s
par System.net_channels[3].netCore[11] slope_l16k_w 1.55e-06s
attr unit s
par System.net_channels[3].netCore[11] ost_rate_l32k_w exponential(5.34e-05s)
attr unit s
par System.net_channels[3].netCore[11] slope_l32k_w 1.88e-06s
attr unit s
par System.net_channels[3].netCore[11] ost_rate_l256k_w exponential(8.35e-05s)
attr unit s
par System.net_channels[3].netCore[11] slope_l256k_w 1.58e-06s
attr unit s
par System.net_channels[3].netCore[11] ost_rate_g256k_w exponential(0.000437s)
attr unit s
par System.net_channels[3].netCore[11] ost_rate_l64_r exponential(2e-06s)
attr unit s
par System.net_channels[3].netCore[11] ost_rate_l1k_r exponential(3.05e-06s)
attr unit s
par System.net_channels[3].netCore[11] ost_rate_l4k_r exponential(3.1e-06s)
attr unit s
par System.net_channels[3].netCore[11] slope_l4k_r 3.2e-06s
attr unit s
par System.net_channels[3].netCore[11] ost_rate_l8k_r exponential(1.2e-05s)
attr unit s
par System.net_channels[3].netCore[11] slope_l8k_r 8.75e-07s
attr unit s
par System.net_channels[3].netCore[11] ost_rate_l16k_r exponential(1.55e-05s)
attr unit s
par System.net_channels[3].netCore[11] slope_l16k_r 1.44e-06s
attr unit s
par System.net_channels[3].netCore[11] ost_rate_l32k_r exponential(2.7e-05s)
attr unit s
par System.net_channels[3].netCore[11] slope_l32k_r 1.19e-06s
attr unit s
par System.net_channels[3].netCore[11] ost_rate_l256k_r exponential(4.6e-05s)
attr unit s
par System.net_channels[3].netCore[11] slope_l256k_r 1.12e-06s
attr unit s
par System.net_channels[3].netCore[11] ost_rate_g256k_r exponential(0.000297s)
attr unit s
statistic System.net_channels[3].netCore[11] waitInStation:histogram
field count 0
field mean -nan
field stddev -nan
field min -nan
field max -nan
field sum 0
field sqrsum 0
attr recordingmode histogram
attr title "Average waiting time in station"
bin	-inf	0
bin	0	0
bin	1	0
statistic System.net_channels[3].netCore[11] averageIOPS:histogram
field count 1
field mean 154504.1339969
field stddev -nan
field min 154504.1339969
field max 154504.1339969
field sum 154504.1339969
field sqrsum 23871527422.133
attr recordingmode histogram
attr title "Average IO throughput"
bin	-inf	0
bin	154503.62	0
bin	154503.64	0
bin	154503.66	0
bin	154503.68	0
bin	154503.7	0
bin	154503.72	0
bin	154503.74	0
bin	154503.76	0
bin	154503.78	0
bin	154503.8	0
bin	154503.82	0
bin	154503.84	0
bin	154503.86	0
bin	154503.88	0
bin	154503.9	0
bin	154503.92	0
bin	154503.94	0
bin	154503.96	0
bin	154503.98	0
bin	154504	0
bin	154504.02	0
bin	154504.04	0
bin	154504.06	0
bin	154504.08	0
bin	154504.1	0
bin	154504.12	1
bin	154504.14	0
bin	154504.16	0
bin	154504.18	0
bin	154504.2	0
bin	154504.22	0
bin	154504.24	0
bin	154504.26	0
bin	154504.28	0
bin	154504.3	0
bin	154504.32	0
bin	154504.34	0
bin	154504.36	0
bin	154504.38	0
bin	154504.4	0
bin	154504.42	0
bin	154504.44	0
bin	154504.46	0
bin	154504.48	0
bin	154504.5	0
bin	154504.52	0
bin	154504.54	0
bin	154504.56	0
bin	154504.58	0
bin	154504.6	0
bin	154504.62	0
bin	154504.64	0
par System.net_channels[3].netExit typename "\"lfs.Router\""
par System.net_channels[3] typename "\"lfs.Network\""
par System.net_channels[3] channel_count 12
par System typename "\"lfs.simulations.System\""
par System oss_num 4
par System ost_num 42
par System cable_num 4

